# generated using pymatgen
data_Cd2As6O
_symmetry_space_group_name_H-M   'P 1'
_cell_length_a   6.78869408
_cell_length_b   6.78869408
_cell_length_c   5.22288661
_cell_angle_alpha   90.00000000
_cell_angle_beta   90.00000000
_cell_angle_gamma   120.00000000
_symmetry_Int_Tables_number   1
_chemical_formula_structural   Cd2As6O
_chemical_formula_sum   'Cd2 As6 O1'
_cell_volume   208.45566691
_cell_formula_units_Z   1
loop_
 _symmetry_equiv_pos_site_id
 _symmetry_equiv_pos_as_xyz
  1  'x, y, z'
loop_
 _atom_site_type_symbol
 _atom_site_label
 _atom_site_symmetry_multiplicity
 _atom_site_fract_x
 _atom_site_fract_y
 _atom_site_fract_z
 _atom_site_occupancy
  O  O0  1  -0.00000000  -0.00000000  0.00000000  1
  As  As1  1  0.34304754  0.00000000  0.87467265  1
  As  As2  1  0.00000000  0.34304754  0.87467265  1
  As  As3  1  0.65695246  0.65695246  0.87467265  1
  As  As4  1  0.00000000  0.65695246  0.12532735  1
  As  As5  1  0.65695246  0.00000000  0.12532735  1
  As  As6  1  0.34304754  0.34304754  0.12532735  1
  Cd  Cd7  1  0.33333333  0.66666667  0.50000000  1
  Cd  Cd8  1  0.66666667  0.33333333  0.50000000  1
