data_00-064-0239
# Copyright 2025 International Centre for Diffraction Data. All rights reserved.

_audit_creation_date                  2025-07-06
_audit_creation_method                'Generated by PDF-5+ 2025 4.25.0.2'

_chemical_name_systematic             'Iron Phosphide'
_chemical_formula_moiety              'Fe3 P'
_chemical_formula_sum                 'Fe3 P'
_chemical_formula_weight              198.51

# Atomic parameters are cross-referenced from PDF entry 04-004-2129

_cell_length_a                        9.107(5)
_cell_length_b                        9.107(5)
_cell_length_c                        4.460(5)
_cell_angle_alpha                     90
_cell_angle_beta                      90
_cell_angle_gamma                     90
_cell_formula_units_Z                 8
_cell_volume                          369.90
_symmetry_cell_setting                tetragonal
_symmetry_space_group_name_H-M        I-4
_symmetry_Int_Tables_number           82

loop_
_symmetry_equiv_pos_site_id
_symmetry_equiv_pos_as_xyz
1 x,y,z
2 -x,-y,z
3 y,-x,-z
4 -y,x,-z
5 x+1/2,y+1/2,z+1/2
6 -x+1/2,-y+1/2,z+1/2
7 y+1/2,-x+1/2,-z+1/2
8 -y+1/2,x+1/2,-z+1/2

loop_
_atom_site_label
_atom_site_type_symbol
_atom_site_fract_x
_atom_site_fract_y
_atom_site_fract_z
_atom_site_B_iso_or_equiv
_atom_site_symmetry_multiplicity
_atom_site_Wyckoff_symbol
_atom_site_occupancy
Fe1 Fe 0.0793 0.1059 0.2338 0.378 8 g 1.0
Fe2 Fe 0.3605 0.031 0.986 0.378 8 g 1.0
Fe3 Fe 0.1717 0.2195 0.7548 0.378 8 g 1.0
P4 P 0.2921 0.0454 0.4903 0.378 8 g 1.0

