data_00-057-1085
# Copyright 2025 International Centre for Diffraction Data. All rights reserved.

_audit_creation_date                  2025-07-04
_audit_creation_method                'Generated by PDF-5+ 2025 4.25.0.2'

_chemical_name_systematic             'Potassium Manganese Titanium Phosphate'
_chemical_formula_moiety              'K2 Mn0.5 Ti1.5 ( P O4 )3'
_chemical_formula_sum                 'K2 Mn0.5 O12 P3 Ti1.5'
_chemical_formula_weight              462.38

_cell_length_a                        9.9030(14)
_cell_length_b                        9.9030(14)
_cell_length_c                        9.9030(14)
_cell_angle_alpha                     90.0
_cell_angle_beta                      90.0
_cell_angle_gamma                     90.0
_cell_formula_units_Z                 4
_cell_volume                          971.09
_symmetry_cell_setting                cubic
_symmetry_space_group_name_H-M        P213
_symmetry_Int_Tables_number           198

loop_
_symmetry_equiv_pos_site_id
_symmetry_equiv_pos_as_xyz
1 x,y,z
2 z,x,y
3 y,z,x
4 x+1/2,-y+1/2,-z
5 z+1/2,-x+1/2,-y
6 y+1/2,-z+1/2,-x
7 -x,y+1/2,-z+1/2
8 -z,x+1/2,-y+1/2
9 -y,z+1/2,-x+1/2
10 -x+1/2,-y,z+1/2
11 -z+1/2,-x,y+1/2
12 -y+1/2,-z,x+1/2

loop_
_atom_site_label
_atom_site_type_symbol
_atom_site_fract_x
_atom_site_fract_y
_atom_site_fract_z
_atom_site_U_iso_or_equiv
_atom_site_symmetry_multiplicity
_atom_site_Wyckoff_symbol
_atom_site_occupancy
Mn1 Mn 0.4145 0.0855 0.9145 0.011 . . 0.25
Ti2 Ti 0.4145 0.0855 0.9145 0.011 . . 0.75
Mn3 Mn 0.8566 -0.1434 0.8566 0.011 . . 0.25
Ti4 Ti 0.8566 -0.1434 0.8566 0.011 . . 0.75
P5 P 0.5417 -0.2298 0.8745 0.011 . . 1.0
O6 O 0.6896 -0.2338 0.9199 0.023 . . 1.0
O7 O 0.4966 -0.0842 0.8508 0.03 . . 1.0
O8 O 0.7976 0.018 0.9553 0.031 . . 1.0
O9 O 0.2555 0.0194 0.8081 0.037 . . 1.0
K10 K 0.5688 0.4312 0.9312 0.027 . . 1.0
K11 K 0.207 0.707 0.793 0.033 . . 1.0

