data_00-066-0163
# Copyright 2025 International Centre for Diffraction Data. All rights reserved.

_audit_creation_date                  2025-07-06
_audit_creation_method                'Generated by PDF-5+ 2025 4.25.0.2'

_chemical_name_systematic             'Copper Zinc Tin Selenide'
_chemical_formula_moiety              'Cu2.15 Zn0.85 Sn Se4'
_chemical_formula_sum                 'Cu2.15 Se4 Sn Zn0.85'
_chemical_formula_weight              626.75

_cell_length_a                        5.69188(20)
_cell_length_b                        5.69188(20)
_cell_length_c                        11.3500(7)
_cell_angle_alpha                     90.0
_cell_angle_beta                      90.0
_cell_angle_gamma                     90.0
_cell_formula_units_Z                 2
_cell_volume                          367.71
_symmetry_cell_setting                tetragonal
_symmetry_space_group_name_H-M        I-42m
_symmetry_Int_Tables_number           121

loop_
_symmetry_equiv_pos_site_id
_symmetry_equiv_pos_as_xyz
1 x,y,z
2 -x,-y,z
3 -x,y,-z
4 x,-y,-z
5 -y,x,-z
6 y,-x,-z
7 y,x,z
8 -y,-x,z
9 x+1/2,y+1/2,z+1/2
10 -x+1/2,-y+1/2,z+1/2
11 -x+1/2,y+1/2,-z+1/2
12 x+1/2,-y+1/2,-z+1/2
13 -y+1/2,x+1/2,-z+1/2
14 y+1/2,-x+1/2,-z+1/2
15 y+1/2,x+1/2,z+1/2
16 -y+1/2,-x+1/2,z+1/2

loop_
_atom_site_label
_atom_site_type_symbol
_atom_site_fract_x
_atom_site_fract_y
_atom_site_fract_z
_atom_site_U_iso_or_equiv
_atom_site_symmetry_multiplicity
_atom_site_Wyckoff_symbol
_atom_site_occupancy
Cu1 Cu 0.0 0.5 0.25 0.01455 . . 1.0
Cu2 Cu 0.0 0.0 0.0 0.024 . . 0.15
Zn3 Zn 0.0 0.0 0.0 0.024 . . 0.85
Sn4 Sn 0.0 0.0 0.5 0.01655 . . 1.0
Se5 Se 0.2396 0.2396 0.1294 0.01468 . . 1.0

