data_00-066-0216
# Copyright 2025 International Centre for Diffraction Data. All rights reserved.

_audit_creation_date                  2025-07-06
_audit_creation_method                'Generated by PDF-5+ 2025 4.25.0.2'

_chemical_name_systematic             'Copper Zinc Tin Selenide'
_chemical_name_common                 'dicopper zinc tin tetraselenide'
_chemical_formula_moiety              'Cu2 Zn Sn Se4'
_chemical_formula_sum                 'Cu2 Se4 Sn Zn'
_chemical_formula_weight              627.02

_cell_length_a                        5.69686(3)
_cell_length_b                        5.69686(3)
_cell_length_c                        11.36440(10)
_cell_angle_alpha                     90.0
_cell_angle_beta                      90.0
_cell_angle_gamma                     90.0
_cell_formula_units_Z                 2
_cell_volume                          368.82
_symmetry_cell_setting                tetragonal
_symmetry_space_group_name_H-M        I-4
_symmetry_Int_Tables_number           82

loop_
_symmetry_equiv_pos_site_id
_symmetry_equiv_pos_as_xyz
1 x,y,z
2 -x,-y,z
3 y,-x,-z
4 -y,x,-z
5 x+1/2,y+1/2,z+1/2
6 -x+1/2,-y+1/2,z+1/2
7 y+1/2,-x+1/2,-z+1/2
8 -y+1/2,x+1/2,-z+1/2

loop_
_atom_site_label
_atom_site_type_symbol
_atom_site_fract_x
_atom_site_fract_y
_atom_site_fract_z
_atom_site_U_iso_or_equiv
_atom_site_symmetry_multiplicity
_atom_site_Wyckoff_symbol
_atom_site_occupancy
Se1 Se 0.24288 0.24158 0.12718 . . . 1.0
Cu2 Cu 0.0 0.0 0.0 . . . 1.0
Cu3 Cu 0.0 0.5 0.75 . . . 1.0
Sn4 Sn 0.0 0.0 0.5 . . . 1.0
Zn5 Zn 0.0 0.5 0.25 . . . 1.0

