data_00-060-0446
# Copyright 2025 International Centre for Diffraction Data. All rights reserved.

_audit_creation_date                  2025-07-04
_audit_creation_method                'Generated by PDF-5+ 2025 4.25.0.2'

_chemical_name_systematic             'Barium Copper Neodymium Yttrium Oxide'
_chemical_formula_moiety              'Ba Cu ( Nd1.2 Y0.8 ) O5'
_chemical_formula_sum                 'Ba Cu Nd1.2 O5 Y0.8'
_chemical_formula_weight              525.08

_cell_length_a                        12.40974(14)
_cell_length_b                        5.74587(6)
_cell_length_c                        7.25522(8)
_cell_angle_alpha                     90.0
_cell_angle_beta                      90.0
_cell_angle_gamma                     90.0
_cell_formula_units_Z                 4
_cell_volume                          517.33
_symmetry_cell_setting                orthorhombic
_symmetry_space_group_name_H-M        Pnma
_symmetry_Int_Tables_number           62

loop_
_symmetry_equiv_pos_site_id
_symmetry_equiv_pos_as_xyz
1 x,y,z
2 -x,-y,-z
3 x+1/2,-y+1/2,-z+1/2
4 -x+1/2,y+1/2,z+1/2
5 -x,y+1/2,-z
6 x,-y+1/2,z
7 -x+1/2,-y,z+1/2
8 x+1/2,y,-z+1/2

loop_
_atom_site_label
_atom_site_type_symbol
_atom_site_fract_x
_atom_site_fract_y
_atom_site_fract_z
_atom_site_U_iso_or_equiv
_atom_site_symmetry_multiplicity
_atom_site_Wyckoff_symbol
_atom_site_occupancy
Ba1 Ba 0.905 0.25 0.9339 0.0172 . . 1.0
Nd2 Nd 0.2893 0.25 0.1132 0.0115 . . 0.426
Y3 Y 0.2893 0.25 0.1132 0.0115 . . 0.574
Nd4 Nd 0.0745 0.25 0.3966 0.0115 . . 0.774
Y5 Y 0.0745 0.25 0.3966 0.0115 . . 0.226
Cu6 Cu 0.6606 0.25 0.7123 0.0162 . . 1.0
O7 O 0.4321 -0.0093 0.1708 0.0173 . . 1.0
O8 O 0.2278 0.5068 0.3482 0.0173 . . 1.0
O9 O 0.1051 0.25 0.0785 0.0173 . . 1.0

