data_00-062-0109
# Copyright 2025 International Centre for Diffraction Data. All rights reserved.

_audit_creation_date                  2025-07-06
_audit_creation_method                'Generated by PDF-5+ 2025 4.25.0.2'

_chemical_name_systematic             'Silver Samarium Silicon Selenide'
_chemical_formula_moiety              'Ag0.85 Sm3 Si Se7'
_chemical_formula_sum                 'Ag0.85 Se7 Si Sm3'
_chemical_formula_weight              1123.57

_cell_length_a                        10.5102(2)
_cell_length_b                        10.5102(2)
_cell_length_c                        5.9555(1)
_cell_angle_alpha                     90.0
_cell_angle_beta                      90.0
_cell_angle_gamma                     120.0
_cell_formula_units_Z                 2
_cell_volume                          569.73
_symmetry_cell_setting                hexagonal
_symmetry_space_group_name_H-M        P63
_symmetry_Int_Tables_number           173

loop_
_symmetry_equiv_pos_site_id
_symmetry_equiv_pos_as_xyz
1 x,y,z
2 -y,x-y,z
3 -x+y,-x,z
4 -x,-y,z+1/2
5 y,-x+y,z+1/2
6 x-y,x,z+1/2

loop_
_atom_site_label
_atom_site_type_symbol
_atom_site_fract_x
_atom_site_fract_y
_atom_site_fract_z
_atom_site_B_iso_or_equiv
_atom_site_symmetry_multiplicity
_atom_site_Wyckoff_symbol
_atom_site_occupancy
Sm1 Sm 0.6427 0.8724 0.025 1.45 . . 1.0
Ag2 Ag 0.0 0.0 0.113 4.2 . . 0.66
Ag3 Ag 0.0 0.0 0.216 3.7 . . 0.19
Si4 Si 0.3333 0.6667 0.428 1.0 . . 1.0
Se5 Se 0.3333 0.6667 0.789 1.1 . . 1.0
Se6 Se 0.9035 0.1732 0.03 1.2 . . 1.0
Se7 Se 0.5797 0.1016 0.777 1.3 . . 1.0

