data_00-067-0510
# Copyright 2025 International Centre for Diffraction Data. All rights reserved.

_audit_creation_date                  2025-07-06
_audit_creation_method                'Generated by PDF-5+ 2025 4.25.0.2'

_chemical_name_systematic             'Gallium Nickel Ytterbium'
_chemical_formula_moiety              'Ga4 Ni Yb'
_chemical_formula_sum                 'Ga4 Ni Yb'
_chemical_formula_weight              510.64

_cell_length_a                        4.0853(1)
_cell_length_b                        15.2807(5)
_cell_length_c                        6.4987(2)
_cell_angle_alpha                     90.0
_cell_angle_beta                      90.0
_cell_angle_gamma                     90.0
_cell_formula_units_Z                 4
_cell_volume                          405.69
_symmetry_cell_setting                orthorhombic
_symmetry_space_group_name_H-M        Cmcm
_symmetry_Int_Tables_number           63

loop_
_symmetry_equiv_pos_site_id
_symmetry_equiv_pos_as_xyz
1 x,y,z
2 -x,-y,-z
3 x,-y,-z
4 -x,y,z
5 x,y,-z+1/2
6 -x,-y,z+1/2
7 x,-y,z+1/2
8 -x,y,-z+1/2
9 x+1/2,y+1/2,z
10 -x+1/2,-y+1/2,-z
11 x+1/2,-y+1/2,-z
12 -x+1/2,y+1/2,z
13 x+1/2,y+1/2,-z+1/2
14 -x+1/2,-y+1/2,z+1/2
15 x+1/2,-y+1/2,z+1/2
16 -x+1/2,y+1/2,-z+1/2

loop_
_atom_site_label
_atom_site_type_symbol
_atom_site_fract_x
_atom_site_fract_y
_atom_site_fract_z
_atom_site_B_iso_or_equiv
_atom_site_symmetry_multiplicity
_atom_site_Wyckoff_symbol
_atom_site_occupancy
Yb1 Yb 0.0 0.12122 0.25 0.47667 . . 1.0
Ni2 Ni 0.0 0.77695 0.25 0.66 . . 1.0
Ga3 Ga 0.0 0.31457 0.4497 0.66333 . . 1.0
Ga4 Ga 0.0 0.9295 0.25 1.0 . . 1.0
Ga5 Ga 0.0 0.5 0.0 0.85666 . . 1.0

loop_
_atom_site_aniso_label
_atom_site_aniso_B_11
_atom_site_aniso_B_12
_atom_site_aniso_B_13
_atom_site_aniso_B_22
_atom_site_aniso_B_23
_atom_site_aniso_B_33
Yb1 0.46 0.0 0.0 0.35 0.0 0.62
Ni2 0.31 0.0 0.0 0.9 0.0 0.77
Ga3 0.75 0.0 0.0 0.72 -0.03 0.52
Ga4 0.93 0.0 0.0 1.08 0.0 0.99
Ga5 0.83 0.0 0.0 0.77 -0.04 0.97

