data_00-064-0585
# Copyright 2025 International Centre for Diffraction Data. All rights reserved.

_audit_creation_date                  2025-07-06
_audit_creation_method                'Generated by PDF-5+ 2025 4.25.0.2'

_chemical_name_systematic             Sulfur
_chemical_formula_moiety              S
_chemical_formula_sum                 S
_chemical_formula_weight              32.06

_cell_length_a                        10.46435(9)
_cell_length_b                        12.86555(11)
_cell_length_c                        24.48598(21)
_cell_angle_alpha                     90.0
_cell_angle_beta                      90.0
_cell_angle_gamma                     90.0
_cell_formula_units_Z                 128
_cell_volume                          3296.54
_symmetry_cell_setting                orthorhombic
_symmetry_space_group_name_H-M        Fddd
_symmetry_Int_Tables_number           70

loop_
_symmetry_equiv_pos_site_id
_symmetry_equiv_pos_as_xyz
1 x,y,z
2 -x,-y,-z
3 -x+3/4,-y+3/4,z
4 x+1/4,y+1/4,-z
5 -x+3/4,y,-z+3/4
6 x+1/4,-y,z+1/4
7 x,-y+3/4,-z+3/4
8 -x,y+1/4,z+1/4
9 x,y+1/2,z+1/2
10 -x,-y+1/2,-z+1/2
11 -x+3/4,-y+1/4,z+1/2
12 x+1/4,y+3/4,-z+1/2
13 -x+3/4,y+1/2,-z+1/4
14 x+1/4,-y+1/2,z+3/4
15 x,-y+1/4,-z+1/4
16 -x,y+3/4,z+3/4
17 x+1/2,y,z+1/2
18 -x+1/2,-y,-z+1/2
19 -x+1/4,-y+3/4,z+1/2
20 x+3/4,y+1/4,-z+1/2
21 -x+1/4,y,-z+1/4
22 x+3/4,-y,z+3/4
23 x+1/2,-y+3/4,-z+1/4
24 -x+1/2,y+1/4,z+3/4
25 x+1/2,y+1/2,z
26 -x+1/2,-y+1/2,-z
27 -x+1/4,-y+1/4,z
28 x+3/4,y+3/4,-z
29 -x+1/4,y+1/2,-z+3/4
30 x+3/4,-y+1/2,z+1/4
31 x+1/2,-y+1/4,-z+3/4
32 -x+1/2,y+3/4,z+1/4

loop_
_atom_site_label
_atom_site_type_symbol
_atom_site_fract_x
_atom_site_fract_y
_atom_site_fract_z
_atom_site_U_iso_or_equiv
_atom_site_symmetry_multiplicity
_atom_site_Wyckoff_symbol
_atom_site_occupancy
S1 S 0.85629 0.95286 0.95095 0.0381 . . 1.0
S2 S 0.78602 0.03062 0.07697 0.0348 . . 1.0
S3 S 0.70619 0.98067 0.00454 0.0422 . . 1.0
S4 S 0.78631 0.90855 0.13024 0.0352 . . 1.0

