data_00-069-0819
# Copyright 2025 International Centre for Diffraction Data. All rights reserved.

_audit_creation_date                  2025-07-06
_audit_creation_method                'Generated by PDF-5+ 2025 4.25.0.2'

_chemical_name_systematic             'Zinc Silicon Nitride'
_chemical_formula_moiety              'Zn Si N2'
_chemical_formula_sum                 'N2 Si Zn'
_chemical_formula_weight              121.48

_cell_length_a                        5.24637(4)
_cell_length_b                        6.28025(5)
_cell_length_c                        5.02228(4)
_cell_angle_alpha                     90.0
_cell_angle_beta                      90.0
_cell_angle_gamma                     90.0
_cell_formula_units_Z                 4
_cell_volume                          165.48
_symmetry_cell_setting                orthorhombic
_symmetry_space_group_name_H-M        Pna21
_symmetry_Int_Tables_number           33

loop_
_symmetry_equiv_pos_site_id
_symmetry_equiv_pos_as_xyz
1 x,y,z
2 -x,-y,z+1/2
3 -x+1/2,y+1/2,z+1/2
4 x+1/2,-y+1/2,z

loop_
_atom_site_label
_atom_site_type_symbol
_atom_site_fract_x
_atom_site_fract_y
_atom_site_fract_z
_atom_site_U_iso_or_equiv
_atom_site_symmetry_multiplicity
_atom_site_Wyckoff_symbol
_atom_site_occupancy
Zn1 Zn 0.417 0.1242 0.0 0.0211 . . 1.0
Si2 Si 0.0724 0.1248 0.5043 0.0141 . . 1.0
N3 N 0.0588 0.093 0.1513 0.008 . . 1.0
N4 N 0.1118 0.6536 0.0877 0.0127 . . 1.0

