data_00-061-0078
# Copyright 2025 International Centre for Diffraction Data. All rights reserved.

_audit_creation_date                  2025-07-04
_audit_creation_method                'Generated by PDF-5+ 2025 4.25.0.2'

_chemical_name_systematic             'Cadmium Molybdenum Selenide'
_chemical_formula_moiety              'Cd Mo6 Se8'
_chemical_formula_sum                 'Cd Mo6 Se8'
_chemical_formula_weight              1319.85

_cell_length_a                        9.782
_cell_length_b                        9.782
_cell_length_c                        11.181
_cell_angle_alpha                     90.0
_cell_angle_beta                      90.0
_cell_angle_gamma                     120.0
_cell_formula_units_Z                 3
_cell_volume                          926.55
_symmetry_cell_setting                hexagonal
_symmetry_space_group_name_H-M        R-3H
_symmetry_Int_Tables_number           148

loop_
_symmetry_equiv_pos_site_id
_symmetry_equiv_pos_as_xyz
1 x,y,z
2 -x,-y,-z
3 -y,x-y,z
4 y,-x+y,-z
5 -x+y,-x,z
6 x-y,x,-z
7 x+2/3,y+1/3,z+1/3
8 -x+2/3,-y+1/3,-z+1/3
9 -y+2/3,x-y+1/3,z+1/3
10 y+2/3,-x+y+1/3,-z+1/3
11 -x+y+2/3,-x+1/3,z+1/3
12 x-y+2/3,x+1/3,-z+1/3
13 x+1/3,y+2/3,z+2/3
14 -x+1/3,-y+2/3,-z+2/3
15 -y+1/3,x-y+2/3,z+2/3
16 y+1/3,-x+y+2/3,-z+2/3
17 -x+y+1/3,-x+2/3,z+2/3
18 x-y+1/3,x+2/3,-z+2/3

loop_
_atom_site_label
_atom_site_type_symbol
_atom_site_fract_x
_atom_site_fract_y
_atom_site_fract_z
_atom_site_U_iso_or_equiv
_atom_site_symmetry_multiplicity
_atom_site_Wyckoff_symbol
_atom_site_occupancy
Mo1 Mo 0.0159 0.1668 0.3233 . . . 1.0
Se2 Se 0.3233 0.287 0.412 . . . 1.0
Se3 Se 0.0 0.0 0.2203 . . . 1.0
Cd4 Cd 0.633 0.251 0.335 . . . 0.1666

