data_00-057-0442
# Copyright 2025 International Centre for Diffraction Data. All rights reserved.

_audit_creation_date                  2025-07-04
_audit_creation_method                'Generated by PDF-5+ 2025 4.25.0.2'

_chemical_name_systematic             'Copper Thulium Selenide'
_chemical_formula_moiety              'Tm Cu Se2'
_chemical_formula_sum                 'Cu Se2 Tm'
_chemical_formula_weight              390.40

# Atomic parameters are cross-referenced from PDF entry 04-013-2522

_cell_length_a                        4.0283(1)
_cell_length_b                        4.0283(1)
_cell_length_c                        6.4337(2)
_cell_angle_alpha                     90
_cell_angle_beta                      90
_cell_angle_gamma                     120
_cell_formula_units_Z                 1
_cell_volume                          90.41
_symmetry_cell_setting                hexagonal
_symmetry_space_group_name_H-M        P-3
_symmetry_Int_Tables_number           147

loop_
_symmetry_equiv_pos_site_id
_symmetry_equiv_pos_as_xyz
1 x,y,z
2 -x,-y,-z
3 -y,x-y,z
4 y,-x+y,-z
5 -x+y,-x,z
6 x-y,x,-z

loop_
_atom_site_label
_atom_site_type_symbol
_atom_site_fract_x
_atom_site_fract_y
_atom_site_fract_z
_atom_site_B_iso_or_equiv
_atom_site_symmetry_multiplicity
_atom_site_Wyckoff_symbol
_atom_site_occupancy
Tm1 Tm 0.0 0.0 0.0 0.28 1 a 1.0
Cu2 Cu 0.33333 0.66666 0.6184 2.5 2 d 0.5
Se3 Se 0.33333 0.66666 0.2482 0.43 2 d 1.0

