data_00-064-0838
# Copyright 2025 International Centre for Diffraction Data. All rights reserved.

_audit_creation_date                  2025-07-06
_audit_creation_method                'Generated by PDF-5+ 2025 4.25.0.2'

_chemical_name_systematic             'Barium Iron Lanthanum Niobium Oxide'
_chemical_formula_moiety              'Ba2 Fe La Nb4 O15'
_chemical_formula_sum                 'Ba2 Fe La Nb4 O15'
_chemical_formula_weight              1081.01

_cell_length_a                        12.50618(16)
_cell_length_b                        12.50618(16)
_cell_length_c                        3.93826(6)
_cell_angle_alpha                     90.0
_cell_angle_beta                      90.0
_cell_angle_gamma                     90.0
_cell_formula_units_Z                 2
_cell_volume                          615.96
_symmetry_cell_setting                tetragonal
_symmetry_space_group_name_H-M        P4/mbm
_symmetry_Int_Tables_number           127

loop_
_symmetry_equiv_pos_site_id
_symmetry_equiv_pos_as_xyz
1 x,y,z
2 -x,-y,-z
3 -x,-y,z
4 x,y,-z
5 x+1/2,-y+1/2,z
6 -x+1/2,y+1/2,-z
7 -x+1/2,y+1/2,z
8 x+1/2,-y+1/2,-z
9 -y,x,z
10 y,-x,-z
11 y,-x,z
12 -y,x,-z
13 y+1/2,x+1/2,z
14 -y+1/2,-x+1/2,-z
15 -y+1/2,-x+1/2,z
16 y+1/2,x+1/2,-z

loop_
_atom_site_label
_atom_site_type_symbol
_atom_site_fract_x
_atom_site_fract_y
_atom_site_fract_z
_atom_site_U_iso_or_equiv
_atom_site_symmetry_multiplicity
_atom_site_Wyckoff_symbol
_atom_site_occupancy
Ba1 Ba 0.17057 0.67057 0.0 0.0259 . . 0.66667
La2 La 0.17057 0.67057 0.0 0.0259 . . 0.33333
Ba3 Ba 0.0 0.0 0.0 0.011 . . 0.66667
La4 La 0.0 0.0 0.0 0.011 . . 0.33333
Nb5 Nb 0.21486 0.92484 0.5 0.0071 . . 0.7707
Fe6 Fe 0.21486 0.92484 0.5 0.0071 . . 0.2293
Nb7 Nb 0.0 0.5 0.5 0.0246 . . 0.917
Fe8 Fe 0.0 0.5 0.5 0.0246 . . 0.083
O9 O 0.1588 0.5067 0.5 0.0227 . . 1.0
O10 O 0.2841 0.7841 0.5 0.0227 . . 1.0
O11 O 0.3653 0.5639 0.5 0.0227 . . 1.0
O12 O 0.2022 0.9323 0.0 0.0227 . . 1.0
O13 O 0.0 0.5 0.0 0.0227 . . 1.0

