data_00-051-0404
# Copyright 2025 International Centre for Diffraction Data. All rights reserved.

_audit_creation_date                  2025-07-04
_audit_creation_method                'Generated by PDF-5+ 2025 4.25.0.2'

_chemical_name_systematic             'Sodium Lanthanum Niobium Oxide'
_chemical_formula_moiety              'Na0.5 La0.5 Nb2 O6'
_chemical_formula_sum                 'La0.5 Na0.5 Nb2 O6'
_chemical_formula_weight              362.75

# Atomic parameters are cross-referenced from PDF entry 04-017-9245

_cell_length_a                        3.9261
_cell_length_b                        3.9261
_cell_length_c                        7.8538
_cell_angle_alpha                     90
_cell_angle_beta                      90
_cell_angle_gamma                     90
_cell_formula_units_Z                 2
_cell_volume                          121.06
_symmetry_cell_setting                tetragonal
_symmetry_space_group_name_H-M        P4/mmm
_symmetry_Int_Tables_number           123

loop_
_symmetry_equiv_pos_site_id
_symmetry_equiv_pos_as_xyz
1 x,y,z
2 -x,-y,-z
3 -x,-y,z
4 x,y,-z
5 -x,y,z
6 x,-y,-z
7 x,-y,z
8 -x,y,-z
9 -y,x,z
10 y,-x,-z
11 y,-x,z
12 -y,x,-z
13 y,x,z
14 -y,-x,-z
15 -y,-x,z
16 y,x,-z

loop_
_atom_site_label
_atom_site_type_symbol
_atom_site_fract_x
_atom_site_fract_y
_atom_site_fract_z
_atom_site_B_iso_or_equiv
_atom_site_symmetry_multiplicity
_atom_site_Wyckoff_symbol
_atom_site_occupancy
Na1 Na 0.0 0.0 0.0 0.34 1 a 0.50022
La2 La 0.0 0.0 0.0 0.34 1 a 0.29378
La3 La 0.0 0.0 0.5 0.41 1 b 0.206
Nb4 Nb 0.5 0.5 0.2556 0.82 2 h 1.0
O5 O 0.5 0.5 0.0 2.23 1 c 1.0
O6 O 0.5 0.5 0.5 2.54 1 d 1.0
O7 O 0.0 0.5 0.2481 0.72 4 i 1.0

