data_00-063-0552
# Copyright 2025 International Centre for Diffraction Data. All rights reserved.

_audit_creation_date                  2025-07-06
_audit_creation_method                'Generated by PDF-5+ 2025 4.25.0.2'

_chemical_name_systematic             'Erbium Tin Vanadium'
_chemical_name_common                 'erbium stannide vanadium'
_chemical_formula_moiety              'Er Sn6 V6'
_chemical_formula_sum                 'Er Sn6 V6'
_chemical_formula_weight              1185.17

_cell_length_a                        5.51935(6)
_cell_length_b                        5.51935(6)
_cell_length_c                        9.1872(2)
_cell_angle_alpha                     90.0
_cell_angle_beta                      90.0
_cell_angle_gamma                     120.0
_cell_formula_units_Z                 1
_cell_volume                          242.38
_symmetry_cell_setting                hexagonal
_symmetry_space_group_name_H-M        P6/mmm
_symmetry_Int_Tables_number           191

loop_
_symmetry_equiv_pos_site_id
_symmetry_equiv_pos_as_xyz
1 x,y,z
2 -x,-y,-z
3 -y,x-y,z
4 y,-x+y,-z
5 -x+y,-x,z
6 x-y,x,-z
7 y,x,z
8 -y,-x,-z
9 -x,-x+y,z
10 x,x-y,-z
11 x-y,-y,z
12 -x+y,y,-z
13 -x,-y,z
14 x,y,-z
15 y,-x+y,z
16 -y,x-y,-z
17 x-y,x,z
18 -x+y,-x,-z
19 -y,-x,z
20 y,x,-z
21 x,x-y,z
22 -x,-x+y,-z
23 -x+y,y,z
24 x-y,-y,-z

loop_
_atom_site_label
_atom_site_type_symbol
_atom_site_fract_x
_atom_site_fract_y
_atom_site_fract_z
_atom_site_B_iso_or_equiv
_atom_site_symmetry_multiplicity
_atom_site_Wyckoff_symbol
_atom_site_occupancy
V1 V 0.5 0.0 0.2505 0.5 6 i 1.0
Er2 Er 0.0 0.0 0.0 0.83 1 a 0.893
Er3 Er 0.0 0.0 0.5 0.83 1 b 0.107
Sn4 Sn 0.0 0.0 0.332 0.83 2 e 0.897
Sn5 Sn 0.0 0.0 0.168 0.83 2 e 0.103
Sn6 Sn 0.33333 0.66666 0.5 0.48 2 d 1.0
Sn7 Sn 0.33333 0.66666 0.0 0.84 2 c 1.0

