data_00-061-0694
# Copyright 2025 International Centre for Diffraction Data. All rights reserved.

_audit_creation_date                  2025-07-04
_audit_creation_method                'Generated by PDF-5+ 2025 4.25.0.2'

_chemical_name_systematic             'Lithium Chromium Molybdenum Oxide'
_chemical_formula_moiety              'Li3 Cr ( Mo O4 )3'
_chemical_formula_sum                 'Cr Li3 Mo3 O12'
_chemical_formula_weight              552.69

_cell_length_a                        5.07313(7)
_cell_length_b                        10.40284(11)
_cell_length_c                        17.44884(21)
_cell_angle_alpha                     90.0
_cell_angle_beta                      90.0
_cell_angle_gamma                     90.0
_cell_formula_units_Z                 4
_cell_volume                          920.86
_symmetry_cell_setting                orthorhombic
_symmetry_space_group_name_H-M        Pnma
_symmetry_Int_Tables_number           62

loop_
_symmetry_equiv_pos_site_id
_symmetry_equiv_pos_as_xyz
1 x,y,z
2 -x,-y,-z
3 x+1/2,-y+1/2,-z+1/2
4 -x+1/2,y+1/2,z+1/2
5 -x,y+1/2,-z
6 x,-y+1/2,z
7 -x+1/2,-y,z+1/2
8 x+1/2,y,-z+1/2

loop_
_atom_site_label
_atom_site_type_symbol
_atom_site_fract_x
_atom_site_fract_y
_atom_site_fract_z
_atom_site_U_iso_or_equiv
_atom_site_symmetry_multiplicity
_atom_site_Wyckoff_symbol
_atom_site_occupancy
Mo1 Mo 0.2776 0.5252 0.1565 0.0108 8 d 1.0
Mo2 Mo 0.7807 0.25 0.0576 0.0097 4 c 1.0
Cr3 Cr 0.1068 0.25 0.2501 0.011 4 c 0.383
Li4 Li 0.1068 0.25 0.2501 0.011 4 c 0.617
Cr5 Cr 0.7562 0.5695 0.025 0.0162 8 d 0.308
Li6 Li 0.7562 0.5695 0.025 0.0162 8 d 0.692
Li7 Li 0.244 0.75 0.3031 0.015 4 c 1.0
O8 O 0.8599 0.25 0.157 0.018 4 c 1.0
O9 O 0.0565 0.25 -0.0056 0.018 4 c 1.0
O10 O 0.5806 0.1156 0.037 0.0165 8 d 1.0
O11 O 0.0792 0.4873 0.0748 0.0166 8 d 1.0
O12 O 0.0807 0.6229 0.2132 0.021 8 d 1.0
O13 O 0.3559 0.3802 0.2056 0.0158 8 d 1.0
O14 O 0.5596 0.6116 0.1262 0.0173 8 d 1.0

