data_00-066-0858
# Copyright 2025 International Centre for Diffraction Data. All rights reserved.

_audit_creation_date                  2025-07-06
_audit_creation_method                'Generated by PDF-5+ 2025 4.25.0.2'

_chemical_name_systematic             'Barium Strontium Zirconium Titanium Oxide'
_chemical_formula_moiety              'Ba0.9 Sr0.1 Zr0.05 Ti0.95 O3'
_chemical_formula_sum                 'Ba0.9 O3 Sr0.1 Ti0.95 Zr0.05'
_chemical_formula_weight              230.39

_cell_length_a                        4.00418
_cell_length_b                        4.00418
_cell_length_c                        4.01443
_cell_angle_alpha                     90.0
_cell_angle_beta                      90.0
_cell_angle_gamma                     90.0
_cell_formula_units_Z                 1
_cell_volume                          64.52
_symmetry_cell_setting                tetragonal
_symmetry_space_group_name_H-M        P4mm
_symmetry_Int_Tables_number           99

loop_
_symmetry_equiv_pos_site_id
_symmetry_equiv_pos_as_xyz
1 x,y,z
2 -x,-y,z
3 -x,y,z
4 x,-y,z
5 y,x,z
6 -y,-x,z
7 -y,x,z
8 y,-x,z

loop_
_atom_site_label
_atom_site_type_symbol
_atom_site_fract_x
_atom_site_fract_y
_atom_site_fract_z
_atom_site_U_iso_or_equiv
_atom_site_symmetry_multiplicity
_atom_site_Wyckoff_symbol
_atom_site_occupancy
Ba1 Ba 0.0 0.0 0.0 0.0293 . . 0.9
Sr2 Sr 0.0 0.0 0.0 0.0293 . . 0.1
Zr3 Zr 0.5 0.5 0.4854 0.02285 . . 0.05
Ti4 Ti 0.5 0.5 0.4854 0.02415 . . 0.95
O5 O 0.5 0.5 0.0 0.02724 . . 1.0
O6 O 0.5 0.0 0.48729 0.03786 . . 0.5

