data_00-063-0776
# Copyright 2025 International Centre for Diffraction Data. All rights reserved.

_audit_creation_date                  2025-07-06
_audit_creation_method                'Generated by PDF-5+ 2025 4.25.0.2'

_chemical_name_systematic             'Cesium Magnesium Silicon Oxide'
_chemical_name_common                 'dicesium magnesium pentasilicate'
_chemical_formula_moiety              'Cs2 Mg Si5 O12'
_chemical_formula_sum                 'Cs2 Mg O12 Si5'
_chemical_formula_weight              622.53

_cell_length_a                        13.6371(5)
_cell_length_b                        13.6689(5)
_cell_length_c                        13.7280(5)
_cell_angle_alpha                     90.0
_cell_angle_beta                      90.0
_cell_angle_gamma                     90.0
_cell_formula_units_Z                 8
_cell_volume                          2558.96
_symmetry_cell_setting                orthorhombic
_symmetry_space_group_name_H-M        Pbca
_symmetry_Int_Tables_number           61

loop_
_symmetry_equiv_pos_site_id
_symmetry_equiv_pos_as_xyz
1 x,y,z
2 -x,-y,-z
3 x+1/2,-y+1/2,-z
4 -x+1/2,y+1/2,z
5 -x,y+1/2,-z+1/2
6 x,-y+1/2,z+1/2
7 -x+1/2,-y,z+1/2
8 x+1/2,y,-z+1/2

loop_
_atom_site_label
_atom_site_type_symbol
_atom_site_fract_x
_atom_site_fract_y
_atom_site_fract_z
_atom_site_U_iso_or_equiv
_atom_site_symmetry_multiplicity
_atom_site_Wyckoff_symbol
_atom_site_occupancy
Cs1 Cs 0.1466 0.1274 0.1374 0.0322 . . 1.0
Cs2 Cs 0.3931 0.3804 0.392 0.0322 . . 1.0
Mg3 Mg 0.366 0.835 0.916 0.002 . . 1.0
Si4 Si 0.111 0.657 0.589 0.035 . . 1.0
Si5 Si 0.597 0.109 0.665 0.035 . . 1.0
Si6 Si 0.63 0.602 0.131 0.035 . . 1.0
Si7 Si 0.93 0.377 0.834 0.035 . . 1.0
Si8 Si 0.825 0.909 0.365 0.035 . . 1.0
O9 O 0.479 0.379 0.16 0.034 . . 1.0
O10 O 0.144 0.486 0.378 0.034 . . 1.0
O11 O 0.39 0.116 0.479 0.034 . . 1.0
O12 O 0.754 0.394 0.615 0.034 . . 1.0
O13 O 0.614 0.726 0.392 0.034 . . 1.0
O14 O 0.346 0.638 0.741 0.034 . . 1.0
O15 O 0.955 0.9 0.666 0.034 . . 1.0
O16 O 0.639 0.975 0.876 0.034 . . 1.0
O17 O 0.863 0.653 0.953 0.034 . . 1.0
O18 O 0.21 0.886 0.133 0.034 . . 1.0
O19 O 0.143 0.201 0.884 0.034 . . 1.0
O20 O 0.93 0.147 0.217 0.034 . . 1.0

