data_00-050-0218
# Copyright 2025 International Centre for Diffraction Data. All rights reserved.

_audit_creation_date                  2025-07-04
_audit_creation_method                'Generated by PDF-5+ 2025 4.25.0.2'

_chemical_name_systematic             'Potassium Europium Vanadium Oxide'
_chemical_formula_moiety              'K3 Eu ( V O4 )2'
_chemical_formula_sum                 'Eu K3 O8 V2'
_chemical_formula_weight              499.13

# Atomic parameters are cross-referenced from PDF entry 04-016-1340

_cell_length_a                        9.8391(1)
_cell_length_b                        5.9100(1)
_cell_length_c                        7.5203(1)
_cell_angle_alpha                     90
_cell_angle_beta                      90.855(1)
_cell_angle_gamma                     90
_cell_formula_units_Z                 2
_cell_volume                          437.25
_symmetry_cell_setting                monoclinic
_symmetry_space_group_name_H-M        P21/m
_symmetry_Int_Tables_number           11

loop_
_symmetry_equiv_pos_site_id
_symmetry_equiv_pos_as_xyz
1 x,y,z
2 -x,-y,-z
3 -x,y+1/2,-z
4 x,-y+1/2,z

loop_
_atom_site_label
_atom_site_type_symbol
_atom_site_fract_x
_atom_site_fract_y
_atom_site_fract_z
_atom_site_B_iso_or_equiv
_atom_site_symmetry_multiplicity
_atom_site_Wyckoff_symbol
_atom_site_occupancy
K1 K 0.306 0.25 0.4959 0.24 2 e 1.0
K2 K 0.5796 0.25 0.1904 1.9 2 e 1.0
V3 V 0.9218 0.25 0.1908 0.7 2 e 1.0
O4 O 0.96 0.25 0.986 2.3 2 e 1.0
O5 O 0.069 0.25 0.285 3.6 2 e 1.0
O6 O 0.162 0.514 0.768 1.3 4 f 1.0
K7 K 0.9134 0.25 0.634 2.1 2 e 1.0
Eu8 Eu 0.2123 0.25 0.9923 1.1 2 e 1.0
V9 V 0.5893 0.25 0.7645 0.43 2 e 1.0
O10 O 0.595 0.25 0.546 0.8 2 e 1.0
O11 O 0.432 0.25 0.83 0.9 2 e 1.0
O12 O 0.3306 0.513 0.156 2.0 4 f 1.0

