data_00-059-0769
# Copyright 2025 International Centre for Diffraction Data. All rights reserved.

_audit_creation_date                  2025-07-04
_audit_creation_method                'Generated by PDF-5+ 2025 4.25.0.2'

_chemical_name_systematic             'Barium Yttrium Silicate'
_chemical_formula_moiety              'Ba Y2 Si3 O10'
_chemical_formula_sum                 'Ba O10 Si3 Y2'
_chemical_formula_weight              559.39

# Atomic parameters are cross-referenced from PDF entry 04-014-1064

_cell_length_a                        5.399(1)
_cell_length_b                        12.179(2)
_cell_length_c                        6.852(1)
_cell_angle_alpha                     90
_cell_angle_beta                      106.37(3)
_cell_angle_gamma                     90
_cell_formula_units_Z                 2
_cell_volume                          432.28
_symmetry_cell_setting                monoclinic
_symmetry_space_group_name_H-M        P21/m
_symmetry_Int_Tables_number           11

loop_
_symmetry_equiv_pos_site_id
_symmetry_equiv_pos_as_xyz
1 x,y,z
2 -x,-y,-z
3 -x,y+1/2,-z
4 x,-y+1/2,z

loop_
_atom_site_label
_atom_site_type_symbol
_atom_site_fract_x
_atom_site_fract_y
_atom_site_fract_z
_atom_site_U_iso_or_equiv
_atom_site_symmetry_multiplicity
_atom_site_Wyckoff_symbol
_atom_site_occupancy
Ba1 Ba 0.76082 0.25 0.01992 0.00954 2 e 1.0
Y2 Y 0.15801 0.098858 0.68431 0.00637 4 f 1.0
Si3 Si 0.58242 0.25 0.48917 0.00571 2 e 1.0
Si4 Si 0.30379 0.06205 0.21344 0.00581 4 f 1.0
O5 O 0.3723 0.25 0.6158 0.00783 2 e 1.0
O6 O 0.8766 0.25 0.6344 0.00694 2 e 1.0
O7 O 0.5483 0.14287 0.3397 0.01052 4 f 1.0
O8 O 0.4308 -0.05455 0.1907 0.01055 4 f 1.0
O9 O 0.1652 0.12347 0.003 0.01071 4 f 1.0
O10 O 0.1002 0.05192 0.3511 0.00881 4 f 1.0

loop_
_atom_site_aniso_label
_atom_site_aniso_U_11
_atom_site_aniso_U_12
_atom_site_aniso_U_13
_atom_site_aniso_U_22
_atom_site_aniso_U_23
_atom_site_aniso_U_33
Ba1 0.01005 0.0 0.00344 0.01136 0.0 0.00778
Y2 0.0076 -0.00103 0.00167 0.00671 -5.3E-4 0.00475
Si3 0.005 0.0 0.0015 0.0074 0.0 0.0048
Si4 0.0062 3.9E-4 0.00165 0.0067 1.5E-4 0.0046
O5 0.0075 0.0 0.005 0.0071 0.0 0.0104
O6 0.0058 0.0 -4.0E-4 0.0069 0.0 0.0068
O7 0.0087 -0.0034 0.0036 0.0129 -0.0051 0.0105
O8 0.0102 0.002 0.0015 0.009 -7.0E-4 0.0115
O9 0.0138 0.0047 0.0016 0.0127 0.0015 0.005
O10 0.0094 -0.0038 0.0042 0.0112 -0.0023 0.007

