data_00-059-0706
# Copyright 2025 International Centre for Diffraction Data. All rights reserved.

_audit_creation_date                  2025-07-04
_audit_creation_method                'Generated by PDF-5+ 2025 4.25.0.2'

_chemical_name_systematic             'Sodium Terbium Phosphate Molybdenum Oxide'
_chemical_formula_moiety              'Na2 Tb ( P O4 ) ( Mo O4 )'
_chemical_formula_sum                 'Mo Na2 O8 P Tb'
_chemical_formula_weight              459.83
_chemical_melting_point               1073.0

# Atomic parameters are cross-referenced from PDF entry 04-015-1238

_cell_length_a                        17.9849(2)
_cell_length_b                        12.1989(2)
_cell_length_c                        6.9129(1)
_cell_angle_alpha                     90
_cell_angle_beta                      90
_cell_angle_gamma                     90
_cell_formula_units_Z                 8
_cell_volume                          1516.66
_symmetry_cell_setting                orthorhombic
_symmetry_space_group_name_H-M        Ibca
_symmetry_Int_Tables_number           73

loop_
_symmetry_equiv_pos_site_id
_symmetry_equiv_pos_as_xyz
1 x,y,z
2 -x,-y,-z
3 -x+1/2,-y,z+1/2
4 x+1/2,y,-z+1/2
5 -x,y+1/2,-z+1/2
6 x,-y+1/2,z+1/2
7 x+1/2,-y+1/2,-z
8 -x+1/2,y+1/2,z
9 x+1/2,y+1/2,z+1/2
10 -x+1/2,-y+1/2,-z+1/2
11 -x,-y+1/2,z
12 x,y+1/2,-z
13 -x+1/2,y,-z
14 x+1/2,-y,z
15 x,-y,-z+1/2
16 -x,y,z+1/2

loop_
_atom_site_label
_atom_site_type_symbol
_atom_site_fract_x
_atom_site_fract_y
_atom_site_fract_z
_atom_site_U_iso_or_equiv
_atom_site_symmetry_multiplicity
_atom_site_Wyckoff_symbol
_atom_site_occupancy
Na1 Na 0.5963 0.1884 0.272 0.029 16 f 1.0
Tb2 Tb 0.75 0.0716 0.0 0.0054 8 d 1.0
Mo3 Mo 0.4292 0.0 0.25 0.0145 8 c 1.0
P4 P 0.25 0.1727 0.0 0.011 8 d 1.0
O5 O 0.3773 0.0257 0.473 0.03 16 f 1.0
O6 O 0.4895 0.1202 0.195 0.03 16 f 1.0
O7 O 0.1844 0.2553 -0.009 0.008 16 f 1.0
O8 O 0.2476 0.1087 0.183 0.008 16 f 1.0

