data_00-050-1474
# Copyright 2025 International Centre for Diffraction Data. All rights reserved.

_audit_creation_date                  2025-07-04
_audit_creation_method                'Generated by PDF-5+ 2025 4.25.0.2'

_chemical_name_systematic             'Cerium Germanium Palladium'
_chemical_formula_moiety              'Ce Pd5 Ge3'
_chemical_formula_sum                 'Ce Ge3 Pd5'
_chemical_formula_weight              890.11

# Atomic parameters are cross-referenced from PDF entry 04-008-1188

_cell_length_a                        20.24
_cell_length_b                        4.122
_cell_length_c                        7.244
_cell_angle_alpha                     90
_cell_angle_beta                      90
_cell_angle_gamma                     90
_cell_formula_units_Z                 4
_cell_volume                          604.36
_symmetry_cell_setting                orthorhombic
_symmetry_space_group_name_H-M        Pnma
_symmetry_Int_Tables_number           62

loop_
_symmetry_equiv_pos_site_id
_symmetry_equiv_pos_as_xyz
1 x,y,z
2 -x,-y,-z
3 x+1/2,-y+1/2,-z+1/2
4 -x+1/2,y+1/2,z+1/2
5 -x,y+1/2,-z
6 x,-y+1/2,z
7 -x+1/2,-y,z+1/2
8 x+1/2,y,-z+1/2

loop_
_atom_site_label
_atom_site_type_symbol
_atom_site_fract_x
_atom_site_fract_y
_atom_site_fract_z
_atom_site_U_iso_or_equiv
_atom_site_symmetry_multiplicity
_atom_site_Wyckoff_symbol
_atom_site_occupancy
Pd1 Pd 0.0083 0.25 0.3705 . 4 c 1.0
Ge2 Ge 0.0706 0.25 0.6689 . 4 c 1.0
Ge3 Ge 0.0893 0.25 0.0761 . 4 c 1.0
Pd4 Pd 0.1963 0.25 0.0647 . 4 c 1.0
Pd5 Pd 0.2099 0.25 0.6901 . 4 c 1.0
Ge6 Ge 0.2575 0.25 0.3886 . 4 c 1.0
Ce7 Ce 0.3561 0.25 0.8692 . 4 c 1.0
Pd8 Pd 0.3947 0.25 0.3621 . 4 c 1.0
Pd9 Pd 0.4876 0.25 0.6135 . 4 c 1.0

