data_00-064-0531
# Copyright 2025 International Centre for Diffraction Data. All rights reserved.

_audit_creation_date                  2025-07-06
_audit_creation_method                'Generated by PDF-5+ 2025 4.25.0.2'

_chemical_name_systematic             'Calcium Erbium Silicate'
_chemical_formula_moiety              'Ca3 Er2 Si3 O12'
_chemical_formula_sum                 'Ca3 Er2 O12 Si3'
_chemical_formula_weight              731.00

_cell_length_a                        6.5603(4)
_cell_length_b                        15.5947(10)
_cell_length_c                        10.0372(6)
_cell_angle_alpha                     90.0
_cell_angle_beta                      90.0
_cell_angle_gamma                     90.0
_cell_formula_units_Z                 4
_cell_volume                          1026.86
_symmetry_cell_setting                orthorhombic
_symmetry_space_group_name_H-M        Pnma
_symmetry_Int_Tables_number           62

loop_
_symmetry_equiv_pos_site_id
_symmetry_equiv_pos_as_xyz
1 x,y,z
2 -x,-y,-z
3 x+1/2,-y+1/2,-z+1/2
4 -x+1/2,y+1/2,z+1/2
5 -x,y+1/2,-z
6 x,-y+1/2,z
7 -x+1/2,-y,z+1/2
8 x+1/2,y,-z+1/2

loop_
_atom_site_label
_atom_site_type_symbol
_atom_site_fract_x
_atom_site_fract_y
_atom_site_fract_z
_atom_site_U_iso_or_equiv
_atom_site_symmetry_multiplicity
_atom_site_Wyckoff_symbol
_atom_site_occupancy
Er1 Er 0.3749 0.09517 0.07259 0.0149 . . 0.54
Ca2 Ca 0.3749 0.09517 0.07259 0.0149 . . 0.46
Er3 Er 0.1764 0.60941 0.16565 0.0159 . . 0.39
Ca4 Ca 0.1764 0.60941 0.16565 0.0159 . . 0.61
Er5 Er 0.0323 0.25 0.1752 0.0137 . . 0.14
Ca6 Ca 0.0323 0.25 0.1752 0.0137 . . 0.86
Si7 Si 0.3558 0.069 0.3709 0.0096 . . 1.0
Si8 Si 0.0325 0.25 0.574 0.0106 . . 1.0
O9 O 0.035 0.1151 0.0427 0.0161 . . 1.0
O10 O 0.0563 0.6661 0.351 0.0223 . . 1.0
O11 O 0.1823 0.0363 0.4741 0.0213 . . 1.0
O12 O 0.2476 0.1457 0.2791 0.0186 . . 1.0
O13 O 0.4219 0.513 0.2798 0.0192 . . 1.0
O14 O 0.2792 0.25 0.5813 0.0167 . . 1.0
O15 O 0.423 0.25 0.0703 0.0203 . . 1.0

