data_00-067-0288
# Copyright 2025 International Centre for Diffraction Data. All rights reserved.

_audit_creation_date                  2025-07-06
_audit_creation_method                'Generated by PDF-5+ 2025 4.25.0.2'

_chemical_name_systematic             'Calcium Strontium Lanthanum Titanium Oxide'
_chemical_formula_moiety              'La0.2 Sr0.25 Ca0.45 Ti O3'
_chemical_formula_sum                 'Ca0.45 La0.2 O3 Sr0.25 Ti'
_chemical_formula_weight              163.59

_cell_length_a                        5.4621(1)
_cell_length_b                        5.4634(1)
_cell_length_c                        7.7139(1)
_cell_angle_alpha                     90.0
_cell_angle_beta                      90.0
_cell_angle_gamma                     90.0
_cell_formula_units_Z                 4
_cell_volume                          230.20
_symmetry_cell_setting                orthorhombic
_symmetry_space_group_name_H-M        Pbnm
_symmetry_Int_Tables_number           62

loop_
_symmetry_equiv_pos_site_id
_symmetry_equiv_pos_as_xyz
1 x,y,z
2 -x,-y,-z
3 -x+1/2,y+1/2,-z+1/2
4 x+1/2,-y+1/2,z+1/2
5 -x,-y,z+1/2
6 x,y,-z+1/2
7 x+1/2,-y+1/2,-z
8 -x+1/2,y+1/2,z

loop_
_atom_site_label
_atom_site_type_symbol
_atom_site_fract_x
_atom_site_fract_y
_atom_site_fract_z
_atom_site_U_iso_or_equiv
_atom_site_symmetry_multiplicity
_atom_site_Wyckoff_symbol
_atom_site_occupancy
Ti1 Ti 0.0 0.0 0.0 0.0078 . . 1.0
La2 La -0.006 0.5074 0.25 0.0061 . . 0.2
Sr3 Sr -0.006 0.5074 0.25 0.0061 . . 0.25
Ca4 Ca -0.006 0.5074 0.25 0.0061 . . 0.45
O5 O -0.0537 -0.0055 0.25 0.0122 . . 1.0
O6 O 0.2333 0.2693 0.024 0.0114 . . 1.0

