data_00-058-0292
# Copyright 2025 International Centre for Diffraction Data. All rights reserved.

_audit_creation_date                  2025-07-04
_audit_creation_method                'Generated by PDF-5+ 2025 4.25.0.2'

_chemical_name_systematic             'Platinum Silicon Ytterbium'
_chemical_formula_moiety              'Pt2 Si Yb'
_chemical_formula_sum                 'Pt2 Si Yb'
_chemical_formula_weight              591.31
_chemical_melting_point               1463.0

# Atomic parameters are cross-referenced from PDF entry 04-017-0059

_cell_length_a                        7.1841(2)
_cell_length_b                        6.9151(2)
_cell_length_c                        5.4098(2)
_cell_angle_alpha                     90
_cell_angle_beta                      90
_cell_angle_gamma                     90
_cell_formula_units_Z                 4
_cell_volume                          268.75
_symmetry_cell_setting                orthorhombic
_symmetry_space_group_name_H-M        Pnma
_symmetry_Int_Tables_number           62

loop_
_symmetry_equiv_pos_site_id
_symmetry_equiv_pos_as_xyz
1 x,y,z
2 -x,-y,-z
3 x+1/2,-y+1/2,-z+1/2
4 -x+1/2,y+1/2,z+1/2
5 -x,y+1/2,-z
6 x,-y+1/2,z
7 -x+1/2,-y,z+1/2
8 x+1/2,y,-z+1/2

loop_
_atom_site_label
_atom_site_type_symbol
_atom_site_fract_x
_atom_site_fract_y
_atom_site_fract_z
_atom_site_U_iso_or_equiv
_atom_site_symmetry_multiplicity
_atom_site_Wyckoff_symbol
_atom_site_occupancy
Yb1 Yb 0.0257 0.25 0.63381 0.005 4 c 1.0
Pt2 Pt 0.18212 0.05092 0.09147 0.0051 8 d 1.0
Si3 Si 0.3801 0.25 0.3655 0.005 4 c 1.0

