data_00-061-0368
# Copyright 2025 International Centre for Diffraction Data. All rights reserved.

_audit_creation_date                  2025-07-04
_audit_creation_method                'Generated by PDF-5+ 2025 4.25.0.2'

_chemical_name_systematic             'Potassium Scandium Tungsten Oxide Phosphate'
_chemical_formula_moiety              'K2 Sc2 P2 O12 W'
_chemical_formula_structural          'K2 Sc2 ( W O4 ) ( P O4 )2'
_chemical_formula_sum                 'K2 O12 P2 Sc2 W'
_chemical_formula_weight              605.88

_cell_length_a                        10.3372(2)
_cell_length_b                        10.3372(2)
_cell_length_c                        10.3372(2)
_cell_angle_alpha                     90.0
_cell_angle_beta                      90.0
_cell_angle_gamma                     90.0
_cell_formula_units_Z                 4
_cell_volume                          1103.53
_symmetry_cell_setting                cubic
_symmetry_space_group_name_H-M        P213
_symmetry_Int_Tables_number           198

loop_
_symmetry_equiv_pos_site_id
_symmetry_equiv_pos_as_xyz
1 x,y,z
2 z,x,y
3 y,z,x
4 x+1/2,-y+1/2,-z
5 z+1/2,-x+1/2,-y
6 y+1/2,-z+1/2,-x
7 -x,y+1/2,-z+1/2
8 -z,x+1/2,-y+1/2
9 -y,z+1/2,-x+1/2
10 -x+1/2,-y,z+1/2
11 -z+1/2,-x,y+1/2
12 -y+1/2,-z,x+1/2

loop_
_atom_site_label
_atom_site_type_symbol
_atom_site_fract_x
_atom_site_fract_y
_atom_site_fract_z
_atom_site_U_iso_or_equiv
_atom_site_symmetry_multiplicity
_atom_site_Wyckoff_symbol
_atom_site_occupancy
W1 W 0.79435 0.12137 1.02201 0.01461 . . 0.33
P2 P 0.79435 0.12137 1.02201 0.01461 . . 0.67
Sc3 Sc 0.66436 0.16436 1.33564 0.0454 . . 1.0
Sc4 Sc 0.6076 0.3924 0.8924 0.0253 . . 1.0
K5 K 0.81919 0.18081 0.68081 0.0552 . . 1.0
K6 K 0.45355 0.04645 0.95355 0.0771 . . 1.0
O7 O 0.9391 0.1708 1.0176 0.0456 . . 1.0
O8 O 0.7434 0.0996 1.1639 0.0471 . . 1.0
O9 O 0.772 -0.0068 0.9425 0.0589 . . 1.0
O10 O 0.707 0.2296 0.9499 0.0509 . . 1.0

