data_00-070-0262
# Copyright 2025 International Centre for Diffraction Data. All rights reserved.

_audit_creation_date                  2025-07-06
_audit_creation_method                'Generated by PDF-5+ 2025 4.25.0.2'

_chemical_name_systematic             'Terbium Cobalt Gallium'
_chemical_formula_moiety              'Tb2 Co3 Ga9'
_chemical_formula_sum                 'Co3 Ga9 Tb2'
_chemical_formula_weight              1122.16

_cell_length_a                        12.7197(3)
_cell_length_b                        7.3856(2)
_cell_length_c                        9.4224(2)
_cell_angle_alpha                     90
_cell_angle_beta                      90
_cell_angle_gamma                     90
_cell_formula_units_Z                 4
_cell_volume                          885.16
_symmetry_cell_setting                orthorhombic
_symmetry_space_group_name_H-M        Cmcm
_symmetry_Int_Tables_number           63

loop_
_symmetry_equiv_pos_site_id
_symmetry_equiv_pos_as_xyz
1 x,y,z
2 -x,-y,-z
3 x,-y,-z
4 -x,y,z
5 x,y,-z+1/2
6 -x,-y,z+1/2
7 x,-y,z+1/2
8 -x,y,-z+1/2
9 x+1/2,y+1/2,z
10 -x+1/2,-y+1/2,-z
11 x+1/2,-y+1/2,-z
12 -x+1/2,y+1/2,z
13 x+1/2,y+1/2,-z+1/2
14 -x+1/2,-y+1/2,z+1/2
15 x+1/2,-y+1/2,z+1/2
16 -x+1/2,y+1/2,-z+1/2

loop_
_atom_site_label
_atom_site_type_symbol
_atom_site_fract_x
_atom_site_fract_y
_atom_site_fract_z
_atom_site_B_iso_or_equiv
_atom_site_symmetry_multiplicity
_atom_site_Wyckoff_symbol
_atom_site_occupancy
Tb1 Tb 0.3345 0.3318 0.25 . 8 g 1.0
Co2 Co 0.3302 0.0 0.0 . 8 e 1.0
Co3 Co 0.0 0.0 0.0 . 4 a 1.0
Ga4 Ga 0.1663 0.1663 0.0713 . 16 h 1.0
Ga5 Ga 0.1042 0.4475 0.25 . 8 g 1.0
Ga6 Ga 0.0 0.3331 0.5581 . 8 f 1.0
Ga7 Ga 0.0 0.1247 0.25 . 4 c 1.0

