data_00-065-0318
# Copyright 2025 International Centre for Diffraction Data. All rights reserved.

_audit_creation_date                  2025-07-06
_audit_creation_method                'Generated by PDF-5+ 2025 4.25.0.2'

_chemical_name_systematic             'Potassium Lanthanum Titanium Oxide'
_chemical_name_common                 'potassium lanthanum titanate'
_chemical_formula_moiety              'K La Ti O4'
_chemical_formula_sum                 'K La O4 Ti'
_chemical_formula_weight              289.87

_cell_length_a                        3.83709(1)
_cell_length_b                        3.83709(1)
_cell_length_c                        13.4521(5)
_cell_angle_alpha                     90
_cell_angle_beta                      90
_cell_angle_gamma                     90
_cell_formula_units_Z                 2
_cell_volume                          198.06
_symmetry_cell_setting                tetragonal
_symmetry_space_group_name_H-M        P4/nmm
_symmetry_Int_Tables_number           129

loop_
_symmetry_equiv_pos_site_id
_symmetry_equiv_pos_as_xyz
1 x,y,z
2 -x,-y,-z
3 -x+1/2,y,z
4 x+1/2,-y,-z
5 x,-y+1/2,z
6 -x,y+1/2,-z
7 -x+1/2,-y+1/2,z
8 x+1/2,y+1/2,-z
9 y,x,z
10 -y,-x,-z
11 -y+1/2,x,z
12 y+1/2,-x,-z
13 y,-x+1/2,z
14 -y,x+1/2,-z
15 -y+1/2,-x+1/2,z
16 y+1/2,x+1/2,-z

loop_
_atom_site_label
_atom_site_type_symbol
_atom_site_fract_x
_atom_site_fract_y
_atom_site_fract_z
_atom_site_U_iso_or_equiv
_atom_site_symmetry_multiplicity
_atom_site_Wyckoff_symbol
_atom_site_occupancy
K1 K 0.25 0.25 0.595 0.0278 . . 1.0
La2 La 0.25 0.25 0.89446 0.0199 . . 1.0
Ti3 Ti 0.75 0.75 0.74203 0.0151 . . 1.0
O4 O 0.75 0.25 0.7723 0.0189 . . 1.0
O5 O 0.25 0.25 0.3897 0.039 . . 1.0
O6 O 0.25 0.25 0.0681 0.018 . . 1.0

