data_00-069-0054
# Copyright 2025 International Centre for Diffraction Data. All rights reserved.

_audit_creation_date                  2025-07-06
_audit_creation_method                'Generated by PDF-5+ 2025 4.25.0.2'

_chemical_name_systematic             'Lithium Cobalt Phosphate'
_chemical_formula_moiety              'Li Co ( P O4 )'
_chemical_formula_sum                 'Co Li O4 P'
_chemical_formula_weight              160.84

_cell_length_a                        5.4236(4)
_cell_length_b                        8.1662(3)
_cell_length_c                        6.2214(3)
_cell_angle_alpha                     90.0
_cell_angle_beta                      90.0
_cell_angle_gamma                     90.0
_cell_formula_units_Z                 4
_cell_volume                          275.55
_symmetry_cell_setting                orthorhombic
_symmetry_space_group_name_H-M        Cmcm
_symmetry_Int_Tables_number           63

loop_
_symmetry_equiv_pos_site_id
_symmetry_equiv_pos_as_xyz
1 x,y,z
2 -x,-y,-z
3 x,-y,-z
4 -x,y,z
5 x,y,-z+1/2
6 -x,-y,z+1/2
7 x,-y,z+1/2
8 -x,y,-z+1/2
9 x+1/2,y+1/2,z
10 -x+1/2,-y+1/2,-z
11 x+1/2,-y+1/2,-z
12 -x+1/2,y+1/2,z
13 x+1/2,y+1/2,-z+1/2
14 -x+1/2,-y+1/2,z+1/2
15 x+1/2,-y+1/2,z+1/2
16 -x+1/2,y+1/2,-z+1/2

loop_
_atom_site_label
_atom_site_type_symbol
_atom_site_fract_x
_atom_site_fract_y
_atom_site_fract_z
_atom_site_U_iso_or_equiv
_atom_site_symmetry_multiplicity
_atom_site_Wyckoff_symbol
_atom_site_occupancy
O1 O 0.22643 0.4706 0.25 0.00965 . . 1.0
O2 O 0.0 0.24889 0.05268 0.00856 . . 1.0
P3 P 0.0 0.35274 0.25 0.00544 . . 0.988
Li4 Li 0.0 0.69274 0.25 0.03993 . . 1.0
Co5 Co 0.0 0.0 0.0 0.00883 . . 1.0

