data_00-070-0006
# Copyright 2025 International Centre for Diffraction Data. All rights reserved.

_audit_creation_date                  2025-07-06
_audit_creation_method                'Generated by PDF-5+ 2025 4.25.0.2'

_chemical_name_systematic             'Rubidium Manganese Silicate'
_chemical_formula_moiety              'Rb2 Mn Si5 O12'
_chemical_formula_sum                 'Mn O12 Rb2 Si5'
_chemical_formula_weight              558.29

_cell_length_a                        13.4085(10)
_cell_length_b                        13.6979(11)
_cell_length_c                        13.5761(10)
_cell_angle_alpha                     90
_cell_angle_beta                      90
_cell_angle_gamma                     90
_cell_formula_units_Z                 8
_cell_volume                          2493.50
_symmetry_cell_setting                orthorhombic
_symmetry_space_group_name_H-M        Pbca
_symmetry_Int_Tables_number           61

loop_
_symmetry_equiv_pos_site_id
_symmetry_equiv_pos_as_xyz
1 x,y,z
2 -x,-y,-z
3 x+1/2,-y+1/2,-z
4 -x+1/2,y+1/2,z
5 -x,y+1/2,-z+1/2
6 x,-y+1/2,z+1/2
7 -x+1/2,-y,z+1/2
8 x+1/2,y,-z+1/2

loop_
_atom_site_label
_atom_site_type_symbol
_atom_site_fract_x
_atom_site_fract_y
_atom_site_fract_z
_atom_site_U_iso_or_equiv
_atom_site_symmetry_multiplicity
_atom_site_Wyckoff_symbol
_atom_site_occupancy
Rb1 Rb 0.1311 0.1348 0.1535 0.0544 . . 1.0
Rb2 Rb 0.3811 0.3968 0.3953 0.0544 . . 1.0
Mn3 Mn 0.3707 0.8342 0.9432 0.00127 . . 1.0
Si4 Si 0.1328 0.6601 0.6011 0.024 . . 1.0
Si5 Si 0.5921 0.1146 0.6255 0.024 . . 1.0
Si6 Si 0.6449 0.5993 0.1054 0.024 . . 1.0
Si7 Si 0.9006 0.3583 0.8208 0.024 . . 1.0
Si8 Si 0.8312 0.9317 0.3329 0.024 . . 1.0
O9 O 0.4758 0.355 0.1607 0.00127 . . 1.0
O10 O 0.083 0.4973 0.399 0.00127 . . 1.0
O11 O 0.397 0.15 0.489 0.00127 . . 1.0
O12 O 0.7328 0.423 0.62 0.00127 . . 1.0
O13 O 0.6593 0.7326 0.36 0.00127 . . 1.0
O14 O 0.363 0.6324 0.7605 0.00127 . . 1.0
O15 O 0.9822 0.877 0.645 0.00127 . . 1.0
O16 O 0.659 0.953 0.86 0.00127 . . 1.0
O17 O 0.893 0.635 0.9119 0.00127 . . 1.0
O18 O 0.2099 0.9281 0.135 0.00127 . . 1.0
O19 O 0.132 0.1885 0.9545 0.00127 . . 1.0
O20 O 0.892 0.139 0.2068 0.00127 . . 1.0

