data_00-067-0289
# Copyright 2025 International Centre for Diffraction Data. All rights reserved.

_audit_creation_date                  2025-07-06
_audit_creation_method                'Generated by PDF-5+ 2025 4.25.0.2'

_chemical_name_systematic             'Calcium Strontium Lanthanum Titanium Oxide'
_chemical_formula_moiety              'La0.2 Sr0.2 Ca0.5 Ti O3'
_chemical_formula_sum                 'Ca0.5 La0.2 O3 Sr0.2 Ti'
_chemical_formula_weight              161.21

_cell_length_a                        5.4505(2)
_cell_length_b                        5.4537(2)
_cell_length_c                        7.7017(2)
_cell_angle_alpha                     90.0
_cell_angle_beta                      90.0
_cell_angle_gamma                     90.0
_cell_formula_units_Z                 4
_cell_volume                          228.94
_symmetry_cell_setting                orthorhombic
_symmetry_space_group_name_H-M        Pbnm
_symmetry_Int_Tables_number           62

loop_
_symmetry_equiv_pos_site_id
_symmetry_equiv_pos_as_xyz
1 x,y,z
2 -x,-y,-z
3 -x+1/2,y+1/2,-z+1/2
4 x+1/2,-y+1/2,z+1/2
5 -x,-y,z+1/2
6 x,y,-z+1/2
7 x+1/2,-y+1/2,-z
8 -x+1/2,y+1/2,z

loop_
_atom_site_label
_atom_site_type_symbol
_atom_site_fract_x
_atom_site_fract_y
_atom_site_fract_z
_atom_site_U_iso_or_equiv
_atom_site_symmetry_multiplicity
_atom_site_Wyckoff_symbol
_atom_site_occupancy
Ti1 Ti 0.0 0.0 0.0 0.0063 . . 1.0
La2 La 0.002 0.511 0.25 0.0067 . . 0.2
Sr3 Sr 0.002 0.511 0.25 0.0067 . . 0.2
Ca4 Ca 0.002 0.511 0.25 0.0067 . . 0.5
O5 O -0.053 -0.0085 0.25 0.0115 . . 1.0
O6 O 0.2298 0.2729 0.0268 0.0146 . . 1.0

