data_00-059-0205
# Copyright 2025 International Centre for Diffraction Data. All rights reserved.

_audit_creation_date                  2025-07-04
_audit_creation_method                'Generated by PDF-5+ 2025 4.25.0.2'

_chemical_name_systematic             'Cerium Indium Palladium'
_chemical_formula_moiety              'Ce2 In8 Pd'
_chemical_formula_sum                 'Ce2 In8 Pd'
_chemical_formula_weight              1305.20
_chemical_melting_point               963.0

# Atomic parameters are cross-referenced from PDF entry 04-014-5330

_cell_length_a                        4.6977(2)
_cell_length_b                        4.6977(2)
_cell_length_c                        12.2125(8)
_cell_angle_alpha                     90
_cell_angle_beta                      90
_cell_angle_gamma                     90
_cell_formula_units_Z                 1
_cell_volume                          269.51
_symmetry_cell_setting                tetragonal
_symmetry_space_group_name_H-M        P4/mmm
_symmetry_Int_Tables_number           123

loop_
_symmetry_equiv_pos_site_id
_symmetry_equiv_pos_as_xyz
1 x,y,z
2 -x,-y,-z
3 -x,-y,z
4 x,y,-z
5 -x,y,z
6 x,-y,-z
7 x,-y,z
8 -x,y,-z
9 -y,x,z
10 y,-x,-z
11 y,-x,z
12 -y,x,-z
13 y,x,z
14 -y,-x,-z
15 -y,-x,z
16 y,x,-z

loop_
_atom_site_label
_atom_site_type_symbol
_atom_site_fract_x
_atom_site_fract_y
_atom_site_fract_z
_atom_site_U_iso_or_equiv
_atom_site_symmetry_multiplicity
_atom_site_Wyckoff_symbol
_atom_site_occupancy
Ce1 Ce 0.0 0.0 0.3084 . 2 g 1.0
Pd2 Pd 0.0 0.0 0.0 . 1 a 1.0
In3 In 0.0 0.5 0.1213 . 4 i 1.0
In4 In 0.0 0.5 0.5 . 2 e 1.0
In5 In 0.5 0.5 0.3076 . 2 h 1.0

