data_00-045-0137
# Copyright 2025 International Centre for Diffraction Data. All rights reserved.

_audit_creation_date                  2025-07-04
_audit_creation_method                'Generated by PDF-5+ 2025 4.25.0.2'

_chemical_name_systematic             'Potassium Calcium Magnesium Phosphate'
_chemical_formula_moiety              'Ca9 Mg K ( P O4 )7'
_chemical_formula_sum                 'Ca9 K Mg O28 P7'
_chemical_formula_weight              1088.90

# Atomic parameters are cross-referenced from PDF entry 04-017-5717

_cell_length_a                        10.3869(1)
_cell_length_b                        10.3869(1)
_cell_length_c                        36.969(2)
_cell_angle_alpha                     90
_cell_angle_beta                      90
_cell_angle_gamma                     120
_cell_formula_units_Z                 6
_cell_volume                          3454.14
_symmetry_cell_setting                hexagonal
_symmetry_space_group_name_H-M        R3c
_symmetry_Int_Tables_number           161

loop_
_symmetry_equiv_pos_site_id
_symmetry_equiv_pos_as_xyz
1 x,y,z
2 -y,x-y,z
3 -x+y,-x,z
4 -y,-x,z+1/2
5 x,x-y,z+1/2
6 -x+y,y,z+1/2
7 x+2/3,y+1/3,z+1/3
8 -y+2/3,x-y+1/3,z+1/3
9 -x+y+2/3,-x+1/3,z+1/3
10 -y+2/3,-x+1/3,z+5/6
11 x+2/3,x-y+1/3,z+5/6
12 -x+y+2/3,y+1/3,z+5/6
13 x+1/3,y+2/3,z+2/3
14 -y+1/3,x-y+2/3,z+2/3
15 -x+y+1/3,-x+2/3,z+2/3
16 -y+1/3,-x+2/3,z+1/6
17 x+1/3,x-y+2/3,z+1/6
18 -x+y+1/3,y+2/3,z+1/6

loop_
_atom_site_label
_atom_site_type_symbol
_atom_site_fract_x
_atom_site_fract_y
_atom_site_fract_z
_atom_site_B_iso_or_equiv
_atom_site_symmetry_multiplicity
_atom_site_Wyckoff_symbol
_atom_site_occupancy
Ca1 Ca 0.7277 0.8588 0.4312 0.4 18 b 1.0
Ca2 Ca 0.6135 0.8234 0.2311 0.4 18 b 1.0
Ca3 Ca 0.1197 0.2658 0.3243 0.7 18 b 1.0
K4 K 0.0 0.0 0.1824 2.7 6 a 1.0
Mg5 Mg 0.0 0.0 0.0 0.2 6 a 1.0
P6 P 0.0 0.0 0.2667 1.2 6 a 1.0
P7 P 0.683 0.8608 0.1349 0.4 18 b 1.0
P8 P 0.656 0.8509 0.0304 0.7 18 b 1.0
O9 O 0.0 0.0 0.3087 0.6 6 a 1.0
O10 O 0.011 0.863 0.254 0.8 18 b 1.0
O11 O 0.732 0.921 0.1746 0.9 18 b 1.0
O12 O 0.762 0.775 0.1225 0.8 18 b 1.0
O13 O 0.72 0.004 0.1121 0.6 18 b 1.0
O14 O 0.512 0.759 0.132 0.4 18 b 1.0
O15 O 0.599 0.957 0.0434 0.4 18 b 1.0
O16 O 0.579 0.699 0.0521 0.5 18 b 1.0
O17 O 0.827 0.925 0.0387 0.4 18 b 1.0
O18 O 0.625 0.823 0.99 0.6 18 b 1.0

