data_00-057-0838
# Copyright 2025 International Centre for Diffraction Data. All rights reserved.

_audit_creation_date                  2025-07-04
_audit_creation_method                'Generated by PDF-5+ 2025 4.25.0.2'

_chemical_name_systematic             'Sodium Dysprosium Molybdenum Oxide Phosphate'
_chemical_formula_moiety              'Na2 Dy ( P O4 ) ( Mo O4 )'
_chemical_formula_sum                 'Dy Mo Na2 O8 P'
_chemical_formula_weight              463.41
_chemical_melting_point               1073.0

# Atomic parameters are cross-referenced from PDF entry 04-015-1237

_cell_length_a                        17.9927(2)
_cell_length_b                        12.1553(1)
_cell_length_c                        6.8775(1)
_cell_angle_alpha                     90
_cell_angle_beta                      90
_cell_angle_gamma                     90
_cell_formula_units_Z                 8
_cell_volume                          1504.16
_symmetry_cell_setting                orthorhombic
_symmetry_space_group_name_H-M        Ibca
_symmetry_Int_Tables_number           73

loop_
_symmetry_equiv_pos_site_id
_symmetry_equiv_pos_as_xyz
1 x,y,z
2 -x,-y,-z
3 -x+1/2,-y,z+1/2
4 x+1/2,y,-z+1/2
5 -x,y+1/2,-z+1/2
6 x,-y+1/2,z+1/2
7 x+1/2,-y+1/2,-z
8 -x+1/2,y+1/2,z
9 x+1/2,y+1/2,z+1/2
10 -x+1/2,-y+1/2,-z+1/2
11 -x,-y+1/2,z
12 x,y+1/2,-z
13 -x+1/2,y,-z
14 x+1/2,-y,z
15 x,-y,-z+1/2
16 -x,y,z+1/2

loop_
_atom_site_label
_atom_site_type_symbol
_atom_site_fract_x
_atom_site_fract_y
_atom_site_fract_z
_atom_site_U_iso_or_equiv
_atom_site_symmetry_multiplicity
_atom_site_Wyckoff_symbol
_atom_site_occupancy
Na1 Na 0.5992 0.1886 0.2719 0.043 16 f 1.0
Dy2 Dy 0.75 0.0719 0.0 0.0096 8 d 1.0
Mo3 Mo 0.429 0.0 0.25 0.0176 8 c 1.0
P4 P 0.25 0.1771 0.0 0.008 8 d 1.0
O5 O 0.3759 0.0256 0.4605 0.013 16 f 1.0
O6 O 0.4805 0.1195 0.198 0.013 16 f 1.0
O7 O 0.1851 0.254 -0.004 0.013 16 f 1.0
O8 O 0.2424 0.1057 0.1775 0.013 16 f 1.0

