data_00-065-0315
# Copyright 2025 International Centre for Diffraction Data. All rights reserved.

_audit_creation_date                  2025-07-06
_audit_creation_method                'Generated by PDF-5+ 2025 4.25.0.2'

_chemical_name_systematic             'Potassium Calcium Iron Phosphate'
_chemical_name_common                 'potassium decacalcium iron heptaphosphate, whitlockite'
_chemical_formula_moiety              'K0.8 Ca9.8 Fe0.2 ( P O4 )7'
_chemical_formula_sum                 'Ca9.8 Fe0.2 K0.8 O28 P7'
_chemical_formula_weight              1100.00

_cell_length_a                        10.44282
_cell_length_b                        10.44282
_cell_length_c                        37.29443
_cell_angle_alpha                     90.0
_cell_angle_beta                      90.0
_cell_angle_gamma                     120.0
_cell_formula_units_Z                 6
_cell_volume                          3522.15
_symmetry_cell_setting                hexagonal
_symmetry_space_group_name_H-M        R3cH
_symmetry_Int_Tables_number           161

loop_
_symmetry_equiv_pos_site_id
_symmetry_equiv_pos_as_xyz
1 x,y,z
2 -y,x-y,z
3 -x+y,-x,z
4 -y,-x,z+1/2
5 x,x-y,z+1/2
6 -x+y,y,z+1/2
7 x+2/3,y+1/3,z+1/3
8 -y+2/3,x-y+1/3,z+1/3
9 -x+y+2/3,-x+1/3,z+1/3
10 -y+2/3,-x+1/3,z+5/6
11 x+2/3,x-y+1/3,z+5/6
12 -x+y+2/3,y+1/3,z+5/6
13 x+1/3,y+2/3,z+2/3
14 -y+1/3,x-y+2/3,z+2/3
15 -x+y+1/3,-x+2/3,z+2/3
16 -y+1/3,-x+2/3,z+1/6
17 x+1/3,x-y+2/3,z+1/6
18 -x+y+1/3,y+2/3,z+1/6

loop_
_atom_site_label
_atom_site_type_symbol
_atom_site_fract_x
_atom_site_fract_y
_atom_site_fract_z
_atom_site_U_iso_or_equiv
_atom_site_symmetry_multiplicity
_atom_site_Wyckoff_symbol
_atom_site_occupancy
Ca1 Ca 0.3986 0.1868 0.0212 0.0022 . . 1.0
Ca2 Ca 0.3922 0.1887 0.1265 0.0022 . . 1.0
Ca3 Ca 0.1776 0.3817 0.0949 0.003 . . 1.0
Ca4 Ca 0.3333 0.66667 0.0288 0.002 . . 0.8
Fe5 Fe 0.3333 0.66667 0.0288 0.002 . . 0.2
K6 K 0.0 0.0 0.0447 0.004 . . 0.8
P7 P 0.0 0.0 0.1293 0.0031 . . 1.0
P8 P 0.1351 0.3124 -0.0032 0.0031 . . 1.0
P9 P 0.4897 0.4749 0.0609 0.0031 . . 1.0
O10 O 0.0 0.0 0.1699 0.0025 . . 1.0
O11 O 0.0071 0.1449 0.1115 0.0025 . . 1.0
O12 O 0.0912 0.2697 0.0349 0.0025 . . 1.0
O13 O 0.222 0.233 -0.0145 0.0025 . . 1.0
O14 O -0.0066 0.265 -0.0248 0.0025 . . 1.0
O15 O 0.229 0.4728 -0.11 0.0025 . . 1.0
O16 O 0.408 0.567 0.0709 0.0025 . . 1.0
O17 O 0.5039 0.4689 0.0203 0.0025 . . 1.0
O18 O 0.6427 0.5475 0.0808 0.0025 . . 1.0
O19 O 0.372 0.31 0.0752 0.0025 . . 1.0

