data_00-059-0788
# Copyright 2025 International Centre for Diffraction Data. All rights reserved.

_audit_creation_date                  2025-07-04
_audit_creation_method                'Generated by PDF-5+ 2025 4.25.0.2'

_chemical_name_systematic             'Strontium Aluminum Manganese Oxide'
_chemical_formula_moiety              'Sr2 Al1.07 Mn0.93 O5'
_chemical_formula_sum                 'Al1.07 Mn0.93 O5 Sr2'
_chemical_formula_weight              335.20

# Atomic parameters are cross-referenced from PDF entry 04-014-9888

_cell_length_a                        5.4358(1)
_cell_length_b                        15.6230(4)
_cell_length_c                        5.6075(1)
_cell_angle_alpha                     90
_cell_angle_beta                      90
_cell_angle_gamma                     90
_cell_formula_units_Z                 4
_cell_volume                          476.21
_symmetry_cell_setting                orthorhombic
_symmetry_space_group_name_H-M        Imma
_symmetry_Int_Tables_number           74

loop_
_symmetry_equiv_pos_site_id
_symmetry_equiv_pos_as_xyz
1 x,y,z
2 -x,-y,-z
3 x,-y,-z
4 -x,y,z
5 x,y+1/2,-z
6 -x,-y+1/2,z
7 x,-y+1/2,z
8 -x,y+1/2,-z
9 x+1/2,y+1/2,z+1/2
10 -x+1/2,-y+1/2,-z+1/2
11 x+1/2,-y+1/2,-z+1/2
12 -x+1/2,y+1/2,z+1/2
13 x+1/2,y,-z+1/2
14 -x+1/2,-y,z+1/2
15 x+1/2,-y,z+1/2
16 -x+1/2,y,-z+1/2

loop_
_atom_site_label
_atom_site_type_symbol
_atom_site_fract_x
_atom_site_fract_y
_atom_site_fract_z
_atom_site_U_iso_or_equiv
_atom_site_symmetry_multiplicity
_atom_site_Wyckoff_symbol
_atom_site_occupancy
Sr1 Sr 0.0 0.1137 0.5103 0.013 8 h 1.0
Mn2 Mn 0.0 0.0 0.0 0.013 4 a 0.93
Al3 Al 0.0 0.0 0.0 0.013 4 a 0.07
Al4 Al -0.022 0.25 0.081 0.013 8 i 0.5
O5 O 0.25 0.012 0.25 0.019 8 g 1.0
O6 O 0.0 0.151 -0.069 0.019 8 h 1.0
O7 O 0.785 0.25 0.339 0.019 8 i 0.5

