data_00-060-0778
# Copyright 2025 International Centre for Diffraction Data. All rights reserved.

_audit_creation_date                  2025-07-04
_audit_creation_method                'Generated by PDF-5+ 2025 4.25.0.2'

_chemical_name_systematic             'Calcium Cobalt Gadolinium Oxide'
_chemical_formula_moiety              'Ca Co Gd O4'
_chemical_formula_sum                 'Ca Co Gd O4'
_chemical_formula_weight              320.26

_cell_length_a                        5.2362(3)
_cell_length_b                        11.7439(6)
_cell_length_c                        5.2989(3)
_cell_angle_alpha                     90.0
_cell_angle_beta                      90.0
_cell_angle_gamma                     90.0
_cell_formula_units_Z                 4
_cell_volume                          325.85
_symmetry_cell_setting                orthorhombic
_symmetry_space_group_name_H-M        Cmce
_symmetry_Int_Tables_number           64

loop_
_symmetry_equiv_pos_site_id
_symmetry_equiv_pos_as_xyz
1 x,y,z
2 -x,-y,-z
3 x,-y,-z
4 -x,y,z
5 x,-y+1/2,z+1/2
6 -x,y+1/2,-z+1/2
7 x,y+1/2,-z+1/2
8 -x,-y+1/2,z+1/2
9 x+1/2,y+1/2,z
10 -x+1/2,-y+1/2,-z
11 x+1/2,-y+1/2,-z
12 -x+1/2,y+1/2,z
13 x+1/2,-y,z+1/2
14 -x+1/2,y,-z+1/2
15 x+1/2,y,-z+1/2
16 -x+1/2,-y,z+1/2

loop_
_atom_site_label
_atom_site_type_symbol
_atom_site_fract_x
_atom_site_fract_y
_atom_site_fract_z
_atom_site_B_iso_or_equiv
_atom_site_symmetry_multiplicity
_atom_site_Wyckoff_symbol
_atom_site_occupancy
Gd1 Gd 0.0 0.8603 0.4917 0.8 8 f 0.5
Ca2 Ca 0.0 0.8603 0.4917 0.8 8 f 0.5
Co3 Co 0.0 0.0 0.0 1.06 4 a 1.0
O4 O 0.25 0.0178 0.25 1.2 8 e 1.0
O5 O 0.0 0.8324 0.065 0.8 8 f 1.0

