data_00-071-0073
# Copyright 2025 International Centre for Diffraction Data. All rights reserved.

_audit_creation_date                  2025-07-06
_audit_creation_method                'Generated by PDF-5+ 2025 4.25.0.2'

_chemical_name_systematic             'Iron Oxide'
_chemical_name_common                 '\a-Fe2 O3, hematite'
_chemical_formula_moiety              'Fe2 O3'
_chemical_formula_sum                 'Fe2 O3'
_chemical_formula_weight              159.69

_cell_length_a                        9.6181698
_cell_length_b                        5.0352488
_cell_length_c                        13.750989
_cell_angle_alpha                     90
_cell_angle_beta                      162.40490
_cell_angle_gamma                     90
_cell_formula_units_Z                 4
_cell_volume                          201.31
_symmetry_cell_setting                monoclinic
_symmetry_space_group_name_H-M        C12/c1
_symmetry_Int_Tables_number           15

loop_
_symmetry_equiv_pos_site_id
_symmetry_equiv_pos_as_xyz
1 x,y,z
2 -x,-y,-z
3 -x,y,-z+1/2
4 x,-y,z+1/2
5 x+1/2,y+1/2,z
6 -x+1/2,-y+1/2,-z
7 -x+1/2,y+1/2,-z+1/2
8 x+1/2,-y+1/2,z+1/2

loop_
_atom_site_label
_atom_site_type_symbol
_atom_site_fract_x
_atom_site_fract_y
_atom_site_fract_z
_atom_site_U_iso_or_equiv
_atom_site_symmetry_multiplicity
_atom_site_Wyckoff_symbol
_atom_site_occupancy
Fe1 Fe 0.0 0.0 0.1447 0.038 . . 1.0
O2 O -0.459 -0.153 -0.056 0.038 . . 1.0
O3 O 0.0 0.3061 0.25 0.038 . . 1.0

