data_00-063-0397
# Copyright 2025 International Centre for Diffraction Data. All rights reserved.

_audit_creation_date                  2025-07-06
_audit_creation_method                'Generated by PDF-5+ 2025 4.25.0.2'

_chemical_name_systematic             'Dysprosium Nickel Silicon'
_chemical_name_common                 'dysprosium nickel silicide'
_chemical_formula_moiety              'Dy3 Ni Si2'
_chemical_formula_sum                 'Dy3 Ni Si2'
_chemical_formula_weight              602.37

_cell_length_a                        11.2464(3)
_cell_length_b                        4.1182(1)
_cell_length_c                        11.1642(3)
_cell_angle_alpha                     90.0
_cell_angle_beta                      90.0
_cell_angle_gamma                     90.0
_cell_formula_units_Z                 4
_cell_volume                          517.07
_symmetry_cell_setting                orthorhombic
_symmetry_space_group_name_H-M        Pnma
_symmetry_Int_Tables_number           62

loop_
_symmetry_equiv_pos_site_id
_symmetry_equiv_pos_as_xyz
1 x,y,z
2 -x,-y,-z
3 x+1/2,-y+1/2,-z+1/2
4 -x+1/2,y+1/2,z+1/2
5 -x,y+1/2,-z
6 x,-y+1/2,z
7 -x+1/2,-y,z+1/2
8 x+1/2,y,-z+1/2

loop_
_atom_site_label
_atom_site_type_symbol
_atom_site_fract_x
_atom_site_fract_y
_atom_site_fract_z
_atom_site_U_iso_or_equiv
_atom_site_symmetry_multiplicity
_atom_site_Wyckoff_symbol
_atom_site_occupancy
Dy1 Dy 0.381 0.25 0.4383 . 4 c 1.0
Dy2 Dy 0.056 0.25 0.3755 . 4 c 1.0
Dy3 Dy 0.2125 0.25 0.6989 . 4 c 1.0
Ni4 Ni 0.127 0.25 0.126 . 4 c 1.0
Si5 Si 0.479 0.25 0.686 . 4 c 1.0
Si6 Si 0.3 0.25 0.009 . 4 c 1.0

