data_00-069-0133
# Copyright 2025 International Centre for Diffraction Data. All rights reserved.

_audit_creation_date                  2025-07-06
_audit_creation_method                'Generated by PDF-5+ 2025 4.25.0.2'

_chemical_name_systematic             'Bismuth Iron Oxide'
_chemical_formula_moiety              'Bi2 Fe4 O9'
_chemical_formula_sum                 'Bi2 Fe4 O9'
_chemical_formula_weight              785.33

_cell_length_a                        7.97485
_cell_length_b                        8.44300
_cell_length_c                        6.00395
_cell_angle_alpha                     90.0
_cell_angle_beta                      90.0
_cell_angle_gamma                     90.0
_cell_formula_units_Z                 2
_cell_volume                          404.26
_symmetry_cell_setting                orthorhombic
_symmetry_space_group_name_H-M        Pbam
_symmetry_Int_Tables_number           55

loop_
_symmetry_equiv_pos_site_id
_symmetry_equiv_pos_as_xyz
1 x,y,z
2 -x,-y,-z
3 -x,-y,z
4 x,y,-z
5 x+1/2,-y+1/2,-z
6 -x+1/2,y+1/2,z
7 -x+1/2,y+1/2,-z
8 x+1/2,-y+1/2,z

loop_
_atom_site_label
_atom_site_type_symbol
_atom_site_fract_x
_atom_site_fract_y
_atom_site_fract_z
_atom_site_U_iso_or_equiv
_atom_site_symmetry_multiplicity
_atom_site_Wyckoff_symbol
_atom_site_occupancy
Bi1 Bi 0.17676 0.17445 0.0 0.00127 . . 1.0
Fe2 Fe 0.5 0.0 0.25855 0.00127 . . 1.0
Fe3 Fe 0.3541 0.33484 0.5 0.00127 . . 1.0
O4 O 0.0 0.0 0.5 0.00127 . . 1.0
O5 O 0.36881 0.20755 0.26298 0.00127 . . 1.0
O6 O 0.14021 0.40831 0.5 0.00127 . . 1.0
O7 O 0.15108 0.42988 0.0 0.00127 . . 1.0

