data_00-064-0488
# Copyright 2025 International Centre for Diffraction Data. All rights reserved.

_audit_creation_date                  2025-07-06
_audit_creation_method                'Generated by PDF-5+ 2025 4.25.0.2'

_chemical_name_systematic             'Strontium Gadolinium Ruthenium Oxide'
_chemical_formula_moiety              'Sr2 Gd Ru O6'
_chemical_formula_sum                 'Gd O6 Ru Sr2'
_chemical_formula_weight              529.55

_cell_length_a                        5.8019
_cell_length_b                        5.8296(5)
_cell_length_c                        8.2223(7)
_cell_angle_alpha                     90.0
_cell_angle_beta                      90.258
_cell_angle_gamma                     90.0
_cell_formula_units_Z                 2
_cell_volume                          278.10
_symmetry_cell_setting                monoclinic
_symmetry_space_group_name_H-M        P121/n1
_symmetry_Int_Tables_number           14

loop_
_symmetry_equiv_pos_site_id
_symmetry_equiv_pos_as_xyz
1 x,y,z
2 -x,-y,-z
3 x+1/2,-y+1/2,z+1/2
4 -x+1/2,y+1/2,-z+1/2

loop_
_atom_site_label
_atom_site_type_symbol
_atom_site_fract_x
_atom_site_fract_y
_atom_site_fract_z
_atom_site_U_iso_or_equiv
_atom_site_symmetry_multiplicity
_atom_site_Wyckoff_symbol
_atom_site_occupancy
Sr1 Sr 0.5054 0.5309 0.2511 . 4 e 1.0
Ru2 Ru 0.0 0.5 0.0 . 2 c 1.0
Gd3 Gd 0.5 0.0 0.5 . 2 d 1.0
O4 O 0.2333 0.2084 0.9773 . 4 e 1.0
O5 O 0.2675 0.7408 0.9357 . 4 e 1.0
O6 O 0.3856 0.9806 0.2281 . 4 e 1.0

