data_00-064-0648
# Copyright 2025 International Centre for Diffraction Data. All rights reserved.

_audit_creation_date                  2025-07-06
_audit_creation_method                'Generated by PDF-5+ 2025 4.25.0.2'

_chemical_name_systematic             'Calcium Silicate Sulfate Chloride Fluoride'
_chemical_name_common                 'Fluorellestadite, chlorian, syn'
_chemical_formula_moiety              'Ca10 ( Si O4 )3 ( S O4 )3 Cl0.4 F1.6'
_chemical_formula_sum                 'Ca10 Cl0.4 F1.6 O24 S3 Si3'
_chemical_formula_weight              1009.78

_cell_length_a                        9.5064(2)
_cell_length_b                        9.5064(2)
_cell_length_c                        6.9263(1)
_cell_angle_alpha                     90.0
_cell_angle_beta                      90.0
_cell_angle_gamma                     120.0
_cell_formula_units_Z                 1
_cell_volume                          539.41
_symmetry_cell_setting                hexagonal
_symmetry_space_group_name_H-M        P63/m
_symmetry_Int_Tables_number           176

loop_
_symmetry_equiv_pos_site_id
_symmetry_equiv_pos_as_xyz
1 x,y,z
2 -x,-y,-z
3 -y,x-y,z
4 y,-x+y,-z
5 -x+y,-x,z
6 x-y,x,-z
7 -x,-y,z+1/2
8 x,y,-z+1/2
9 y,-x+y,z+1/2
10 -y,x-y,-z+1/2
11 x-y,x,z+1/2
12 -x+y,-x,-z+1/2

loop_
_atom_site_label
_atom_site_type_symbol
_atom_site_fract_x
_atom_site_fract_y
_atom_site_fract_z
_atom_site_U_iso_or_equiv
_atom_site_symmetry_multiplicity
_atom_site_Wyckoff_symbol
_atom_site_occupancy
Ca1 Ca 0.3333 0.6667 0.0028 . . . 1.0
Ca2 Ca 0.242 -0.0094 0.25 . . . 1.0
S3 S 0.3996 0.3706 0.25 . . . 0.5
Si4 Si 0.3996 0.3706 0.25 . . . 0.5
O5 O 0.3302 0.487 0.25 . . . 1.0
O6 O 0.58724 0.466 0.25 . . . 1.0
O7 O 0.3426 0.2587 0.0712 . . . 1.0
Cl8 Cl 0.0 0.0 0.336 . . . 0.1
F9 F 0.0 0.0 0.25 . . . 0.8

