data_00-065-0178
# Copyright 2025 International Centre for Diffraction Data. All rights reserved.

_audit_creation_date                  2025-07-06
_audit_creation_method                'Generated by PDF-5+ 2025 4.25.0.2'

_chemical_name_systematic             'Potassium Zirconium Tantalum Oxide'
_chemical_formula_moiety              'K3 Zr Ta7 O21'
_chemical_formula_sum                 'K3 O21 Ta7 Zr'
_chemical_formula_weight              1811.13

# Atomic parameters are cross-referenced from PDF entry 04-018-4439

_cell_length_a                        9.1330(3)
_cell_length_b                        9.1330(3)
_cell_length_c                        12.1921(6)
_cell_angle_alpha                     90
_cell_angle_beta                      90
_cell_angle_gamma                     120
_cell_formula_units_Z                 2
_cell_volume                          880.72
_symmetry_cell_setting                hexagonal
_symmetry_space_group_name_H-M        P63/mcm
_symmetry_Int_Tables_number           193

loop_
_symmetry_equiv_pos_site_id
_symmetry_equiv_pos_as_xyz
1 x,y,z
2 -x,-y,-z
3 -y,x-y,z
4 y,-x+y,-z
5 -x+y,-x,z
6 x-y,x,-z
7 y,x,z
8 -y,-x,-z
9 -x,-x+y,z
10 x,x-y,-z
11 x-y,-y,z
12 -x+y,y,-z
13 -x,-y,z+1/2
14 x,y,-z+1/2
15 y,-x+y,z+1/2
16 -y,x-y,-z+1/2
17 x-y,x,z+1/2
18 -x+y,-x,-z+1/2
19 -y,-x,z+1/2
20 y,x,-z+1/2
21 x,x-y,z+1/2
22 -x,-x+y,-z+1/2
23 -x+y,y,z+1/2
24 x-y,-y,-z+1/2

loop_
_atom_site_label
_atom_site_type_symbol
_atom_site_fract_x
_atom_site_fract_y
_atom_site_fract_z
_atom_site_U_iso_or_equiv
_atom_site_symmetry_multiplicity
_atom_site_Wyckoff_symbol
_atom_site_occupancy
Ta1 Ta 0.66666 0.33333 0.0 0.0091 4 d 0.875
Zr2 Zr 0.66666 0.33333 0.0 0.0091 4 d 0.125
Ta3 Ta 0.248 0.248 0.09579 0.009 12 k 0.875
Zr4 Zr 0.248 0.248 0.09579 0.009 12 k 0.125
K5 K 0.4084 0.0 0.25 0.0238 6 g 1.0
O6 O 0.2085 0.2085 0.25 0.017 6 g 1.0
O7 O 0.483 0.3132 0.0947 0.0142 24 l 1.0
O8 O 0.0 0.1983 0.0721 0.0156 12 k 1.0

