data_00-062-0709
# Copyright 2025 International Centre for Diffraction Data. All rights reserved.

_audit_creation_date                  2025-07-06
_audit_creation_method                'Generated by PDF-5+ 2025 4.25.0.2'

_chemical_name_systematic             'Cobalt Lanthanum Selenide Oxide'
_chemical_formula_moiety              'Co2 La2 Se2 O3'
_chemical_formula_sum                 'Co2 La2 O3 Se2'
_chemical_formula_weight              601.59

_cell_length_a                        4.0697(8)
_cell_length_b                        4.0697(8)
_cell_length_c                        18.419(4)
_cell_angle_alpha                     90.0
_cell_angle_beta                      90.0
_cell_angle_gamma                     90.0
_cell_formula_units_Z                 2
_cell_volume                          305.06
_symmetry_cell_setting                tetragonal
_symmetry_space_group_name_H-M        I4/mmm
_symmetry_Int_Tables_number           139

loop_
_symmetry_equiv_pos_site_id
_symmetry_equiv_pos_as_xyz
1 x,y,z
2 -x,-y,-z
3 -x,-y,z
4 x,y,-z
5 -x,y,z
6 x,-y,-z
7 x,-y,z
8 -x,y,-z
9 -y,x,z
10 y,-x,-z
11 y,-x,z
12 -y,x,-z
13 y,x,z
14 -y,-x,-z
15 -y,-x,z
16 y,x,-z
17 x+1/2,y+1/2,z+1/2
18 -x+1/2,-y+1/2,-z+1/2
19 -x+1/2,-y+1/2,z+1/2
20 x+1/2,y+1/2,-z+1/2
21 -x+1/2,y+1/2,z+1/2
22 x+1/2,-y+1/2,-z+1/2
23 x+1/2,-y+1/2,z+1/2
24 -x+1/2,y+1/2,-z+1/2
25 -y+1/2,x+1/2,z+1/2
26 y+1/2,-x+1/2,-z+1/2
27 y+1/2,-x+1/2,z+1/2
28 -y+1/2,x+1/2,-z+1/2
29 y+1/2,x+1/2,z+1/2
30 -y+1/2,-x+1/2,-z+1/2
31 -y+1/2,-x+1/2,z+1/2
32 y+1/2,x+1/2,-z+1/2

loop_
_atom_site_label
_atom_site_type_symbol
_atom_site_fract_x
_atom_site_fract_y
_atom_site_fract_z
_atom_site_B_iso_or_equiv
_atom_site_symmetry_multiplicity
_atom_site_Wyckoff_symbol
_atom_site_occupancy
La1 La 0.5 0.5 0.1837 0.2 . . 1.0
Co2 Co 0.5 0.0 0.0 0.28 . . 1.0
Se3 Se 0.0 0.0 0.09533 0.24 . . 1.0
O4 O 0.5 0.0 0.25 0.8 . . 1.0
O5 O 0.5 0.5 0.0 1.2 . . 1.0

