data_00-061-0657
# Copyright 2025 International Centre for Diffraction Data. All rights reserved.

_audit_creation_date                  2025-07-04
_audit_creation_method                'Generated by PDF-5+ 2025 4.25.0.2'

_chemical_name_systematic             'Cesium Calcium Phosphate'
_chemical_formula_moiety              'Cs Ca10 ( P O4 )7'
_chemical_formula_sum                 'Ca10 Cs O28 P7'
_chemical_formula_weight              1198.47

_cell_length_a                        10.55364(10)
_cell_length_b                        10.55364(10)
_cell_length_c                        37.2076(2)
_cell_angle_alpha                     90.0
_cell_angle_beta                      90.0
_cell_angle_gamma                     120.0
_cell_formula_units_Z                 6
_cell_volume                          3588.95
_symmetry_cell_setting                hexagonal
_symmetry_space_group_name_H-M        R3cH
_symmetry_Int_Tables_number           161

loop_
_symmetry_equiv_pos_site_id
_symmetry_equiv_pos_as_xyz
1 x,y,z
2 -y,x-y,z
3 -x+y,-x,z
4 -y,-x,z+1/2
5 x,x-y,z+1/2
6 -x+y,y,z+1/2
7 x+2/3,y+1/3,z+1/3
8 -y+2/3,x-y+1/3,z+1/3
9 -x+y+2/3,-x+1/3,z+1/3
10 -y+2/3,-x+1/3,z+5/6
11 x+2/3,x-y+1/3,z+5/6
12 -x+y+2/3,y+1/3,z+5/6
13 x+1/3,y+2/3,z+2/3
14 -y+1/3,x-y+2/3,z+2/3
15 -x+y+1/3,-x+2/3,z+2/3
16 -y+1/3,-x+2/3,z+1/6
17 x+1/3,x-y+2/3,z+1/6
18 -x+y+1/3,y+2/3,z+1/6

loop_
_atom_site_label
_atom_site_type_symbol
_atom_site_fract_x
_atom_site_fract_y
_atom_site_fract_z
_atom_site_U_iso_or_equiv
_atom_site_symmetry_multiplicity
_atom_site_Wyckoff_symbol
_atom_site_occupancy
Cs1 Cs 1.0 1.0 0.16625 0.02659 . . 1.0
Ca2 Ca 0.81034 1.20222 0.251484 0.00555 . . 1.0
Ca3 Ca 0.84681 1.12298 0.054115 0.00758 . . 1.0
Ca4 Ca 0.6667 1.3333 0.32 0.00975 . . 1.0
Ca5 Ca 0.80746 1.21299 0.146083 0.00947 . . 1.0
P6 P 1.0 1.0 0.25598 0.0046 . . 1.0
P7 P 1.15345 1.34485 0.01934 0.0044 . . 1.0
P8 P 1.17841 0.85663 0.12121 0.00608 . . 1.0
O9 O 0.6667 1.3333 0.12873 0.016 . . 1.0
O10 O 0.9952 1.271 0.10214 0.0089 . . 1.0
O11 O 1.0776 1.1811 0.02982 0.0085 . . 1.0
O12 O 0.5785 1.1513 0.27765 0.0111 . . 1.0
O13 O 0.6838 1.0726 0.19846 0.0085 . . 1.0
O14 O 1.0178 0.7773 0.10941 0.0124 . . 1.0
O15 O 1.173 1.3672 -0.02121 0.0071 . . 1.0
O16 O 1.1893 0.8873 0.16149 0.0221 . . 1.0
O17 O 1.307 1.4234 0.03618 0.0105 . . 1.0
O18 O 0.855 0.8681 0.24235 0.0117 . . 1.0

