data_00-054-1204
# Copyright 2025 International Centre for Diffraction Data. All rights reserved.

_audit_creation_date                  2025-07-04
_audit_creation_method                'Generated by PDF-5+ 2025 4.25.0.2'

_chemical_name_systematic             'Potassium Lutetium Tungstate'
_chemical_formula_moiety              'K Lu ( W O4 )2'
_chemical_formula_sum                 'K Lu O8 W2'
_chemical_formula_weight              709.74

# Atomic parameters are cross-referenced from PDF entry 04-012-0665

_cell_length_a                        10.591(5)
_cell_length_b                        10.244(6)
_cell_length_c                        7.500(3)
_cell_angle_alpha                     90
_cell_angle_beta                      130.73(2)
_cell_angle_gamma                     90
_cell_formula_units_Z                 4
_cell_volume                          616.62
_symmetry_cell_setting                monoclinic
_symmetry_space_group_name_H-M        C2/c
_symmetry_Int_Tables_number           15

loop_
_symmetry_equiv_pos_site_id
_symmetry_equiv_pos_as_xyz
1 x,y,z
2 -x,-y,-z
3 -x,y,-z+1/2
4 x,-y,z+1/2
5 x+1/2,y+1/2,z
6 -x+1/2,-y+1/2,-z
7 -x+1/2,y+1/2,-z+1/2
8 x+1/2,-y+1/2,z+1/2

loop_
_atom_site_label
_atom_site_type_symbol
_atom_site_fract_x
_atom_site_fract_y
_atom_site_fract_z
_atom_site_U_iso_or_equiv
_atom_site_symmetry_multiplicity
_atom_site_Wyckoff_symbol
_atom_site_occupancy
W1 W 0.19714 0.50009 0.23557 0.00451 8 f 1.0
Lu2 Lu 0.0 0.22818 0.25 0.00568 4 e 1.0
K3 K 0.5 0.299 0.25 0.01229 4 e 1.0
O4 O 0.0233 0.6106 -0.0314 0.00581 8 f 1.0
O5 O 0.2788 0.3412 0.3782 0.01112 8 f 1.0
O6 O 0.1901 0.5768 0.4421 0.0067 8 f 1.0
O7 O 0.3734 0.583 0.3109 0.01201 8 f 1.0

loop_
_atom_site_aniso_label
_atom_site_aniso_U_11
_atom_site_aniso_U_12
_atom_site_aniso_U_13
_atom_site_aniso_U_22
_atom_site_aniso_U_23
_atom_site_aniso_U_33
W1 0.0031 -7.0E-5 0.0034 0.0075 4.3E-6 0.0048
Lu2 0.006 0.0 0.005 0.0075 0.0 0.006
K3 0.008 0.0 0.009 0.019 0.0 0.014
O4 0.005 -2.0E-4 0.0046 0.007 4.0E-6 0.007
O5 0.01 0.006 0.001 0.013 -1.0E-5 0.003
O6 0.008 0.0013 0.0042 0.007 1.0E-6 0.005
O7 0.007 0.002 0.004 0.019 2.0E-5 0.008

