data_00-069-0229
# Copyright 2025 International Centre for Diffraction Data. All rights reserved.

_audit_creation_date                  2025-07-06
_audit_creation_method                'Generated by PDF-5+ 2025 4.25.0.2'

_chemical_name_systematic             'Sodium Niobium Oxide'
_chemical_formula_moiety              'Na Nb O3'
_chemical_formula_sum                 'Na Nb O3'
_chemical_formula_weight              163.89

_cell_length_a                        7.7656(3)
_cell_length_b                        5.5101(3)
_cell_length_c                        5.5640(3)
_cell_angle_alpha                     90.0
_cell_angle_beta                      90.0
_cell_angle_gamma                     90.0
_cell_formula_units_Z                 4
_cell_volume                          238.08
_symmetry_cell_setting                orthorhombic
_symmetry_space_group_name_H-M        Pmc21
_symmetry_Int_Tables_number           26

loop_
_symmetry_equiv_pos_site_id
_symmetry_equiv_pos_as_xyz
1 x,y,z
2 -x,y,z
3 -x,-y,z+1/2
4 x,-y,z+1/2

loop_
_atom_site_label
_atom_site_type_symbol
_atom_site_fract_x
_atom_site_fract_y
_atom_site_fract_z
_atom_site_B_iso_or_equiv
_atom_site_symmetry_multiplicity
_atom_site_Wyckoff_symbol
_atom_site_occupancy
Na1 Na 0.0 0.2415 0.5587 0.5 . . 1.0
Na2 Na 0.5 0.2392 0.531 0.5 . . 1.0
Nb3 Nb 0.2493 0.256 0.0484 0.5 . . 1.0
O4 O 0.2794 0.538 0.2328 0.5 . . 1.0
O5 O 0.2196 0.0387 0.3052 0.5 . . 1.0
O6 O 0.0 0.3105 0.0 0.5 . . 1.0
O7 O 0.5 0.1904 0.0188 0.5 . . 1.0

