data_00-063-0703
# Copyright 2025 International Centre for Diffraction Data. All rights reserved.

_audit_creation_date                  2025-07-06
_audit_creation_method                'Generated by PDF-5+ 2025 4.25.0.2'

_chemical_name_systematic             'Barium Cobalt Zinc Sulfide'
_chemical_formula_moiety              'Ba2 Co0.5 Zn0.5 S3'
_chemical_formula_sum                 'Ba2 Co0.5 S3 Zn0.5'
_chemical_formula_weight              433.00

_cell_length_a                        11.9948(3)
_cell_length_b                        4.2060(1)
_cell_length_c                        12.5341(4)
_cell_angle_alpha                     90.0
_cell_angle_beta                      90.0
_cell_angle_gamma                     90.0
_cell_formula_units_Z                 4
_cell_volume                          632.35
_symmetry_cell_setting                orthorhombic
_symmetry_space_group_name_H-M        Pnma
_symmetry_Int_Tables_number           62

loop_
_symmetry_equiv_pos_site_id
_symmetry_equiv_pos_as_xyz
1 x,y,z
2 -x,-y,-z
3 x+1/2,-y+1/2,-z+1/2
4 -x+1/2,y+1/2,z+1/2
5 -x,y+1/2,-z
6 x,-y+1/2,z
7 -x+1/2,-y,z+1/2
8 x+1/2,y,-z+1/2

loop_
_atom_site_label
_atom_site_type_symbol
_atom_site_fract_x
_atom_site_fract_y
_atom_site_fract_z
_atom_site_U_iso_or_equiv
_atom_site_symmetry_multiplicity
_atom_site_Wyckoff_symbol
_atom_site_occupancy
Ba1 Ba 0.8271 0.25 0.5179 0.01038 4 c 1.0
Ba2 Ba 0.4882 0.25 0.3265 0.01325 4 c 1.0
Co3 Co 0.747 0.25 0.8043 0.0142 4 c 0.5
Zn4 Zn 0.747 0.25 0.8043 0.0142 4 c 0.5
S5 S 0.8666 0.25 0.9483 0.025 4 c 1.0
S6 S 0.5566 0.25 0.8606 0.025 4 c 1.0
S7 S 0.2262 0.25 0.2924 0.025 4 c 1.0

