data_00-061-0130
# Copyright 2025 International Centre for Diffraction Data. All rights reserved.

_audit_creation_date                  2025-07-04
_audit_creation_method                'Generated by PDF-5+ 2025 4.25.0.2'

_chemical_name_systematic             'Bismuth Holmium Palladium'
_chemical_formula_moiety              'Bi2 Ho5 Pd'
_chemical_formula_sum                 'Bi2 Ho5 Pd'
_chemical_formula_weight              1349.03

_cell_length_a                        12.0374(5)
_cell_length_b                        9.1076(4)
_cell_length_c                        8.0135(4)
_cell_angle_alpha                     90.0
_cell_angle_beta                      90.0
_cell_angle_gamma                     90.0
_cell_formula_units_Z                 4
_cell_volume                          878.53
_symmetry_cell_setting                orthorhombic
_symmetry_space_group_name_H-M        Pnma
_symmetry_Int_Tables_number           62

loop_
_symmetry_equiv_pos_site_id
_symmetry_equiv_pos_as_xyz
1 x,y,z
2 -x,-y,-z
3 x+1/2,-y+1/2,-z+1/2
4 -x+1/2,y+1/2,z+1/2
5 -x,y+1/2,-z
6 x,-y+1/2,z
7 -x+1/2,-y,z+1/2
8 x+1/2,y,-z+1/2

loop_
_atom_site_label
_atom_site_type_symbol
_atom_site_fract_x
_atom_site_fract_y
_atom_site_fract_z
_atom_site_U_iso_or_equiv
_atom_site_symmetry_multiplicity
_atom_site_Wyckoff_symbol
_atom_site_occupancy
Ho1 Ho 0.2246 0.25 0.8342 . 4 c 1.0
Ho2 Ho -0.0068 0.25 0.5228 . 4 c 1.0
Ho3 Ho 0.3024 0.25 0.3628 . 4 c 1.0
Ho4 Ho 0.0675 0.0575 0.1839 . 8 d 1.0
Pd5 Pd 0.4814 0.25 0.6058 . 4 c 1.0
Bi6 Bi 0.327 0.0042 0.0682 . 8 d 1.0

