data_00-063-0578
# Copyright 2025 International Centre for Diffraction Data. All rights reserved.

_audit_creation_date                  2025-07-06
_audit_creation_method                'Generated by PDF-5+ 2025 4.25.0.2'

_chemical_name_systematic             'Barium Strontium Cobalt Iron Oxide'
_chemical_formula_moiety              '( Ba0.2 Sr0.8 ) Co2 Fe16 O27'
_chemical_formula_sum                 'Ba0.2 Co2 Fe16 O27 Sr0.8'
_chemical_formula_weight              1540.92

_cell_length_a                        5.89789(18)
_cell_length_b                        5.89789(18)
_cell_length_c                        32.8110(13)
_cell_angle_alpha                     90.0
_cell_angle_beta                      90.0
_cell_angle_gamma                     120.0
_cell_formula_units_Z                 2
_cell_volume                          988.42
_symmetry_cell_setting                hexagonal
_symmetry_space_group_name_H-M        P63/mmc
_symmetry_Int_Tables_number           194

loop_
_symmetry_equiv_pos_site_id
_symmetry_equiv_pos_as_xyz
1 x,y,z
2 -x,-y,-z
3 -y,x-y,z
4 y,-x+y,-z
5 -x+y,-x,z
6 x-y,x,-z
7 -y,-x,z
8 y,x,-z
9 x,x-y,z
10 -x,-x+y,-z
11 -x+y,y,z
12 x-y,-y,-z
13 -x,-y,z+1/2
14 x,y,-z+1/2
15 y,-x+y,z+1/2
16 -y,x-y,-z+1/2
17 x-y,x,z+1/2
18 -x+y,-x,-z+1/2
19 y,x,z+1/2
20 -y,-x,-z+1/2
21 -x,-x+y,z+1/2
22 x,x-y,-z+1/2
23 x-y,-y,z+1/2
24 -x+y,y,-z+1/2

loop_
_atom_site_label
_atom_site_type_symbol
_atom_site_fract_x
_atom_site_fract_y
_atom_site_fract_z
_atom_site_U_iso_or_equiv
_atom_site_symmetry_multiplicity
_atom_site_Wyckoff_symbol
_atom_site_occupancy
Ba1 Ba 0.0 0.0 0.25 0.003 . . 0.2
Sr2 Sr 0.0 0.0 0.25 0.003 . . 0.8
Fe3 Fe 0.33333 0.66667 0.58992 0.005 . . 0.88889
Co4 Co 0.33333 0.66667 0.58992 0.005 . . 0.11111
Fe5 Fe 0.5 0.0 0.0 0.005 . . 0.88889
Co6 Co 0.5 0.0 0.0 0.005 . . 0.11111
Fe7 Fe 0.33333 0.66667 0.25 0.005 . . 0.88889
Co8 Co 0.33333 0.66667 0.25 0.005 . . 0.11111
Fe9 Fe 0.33333 0.66667 0.0734 0.005 . . 0.88889
Co10 Co 0.33333 0.66667 0.0734 0.005 . . 0.11111
Fe11 Fe 0.33333 0.66667 0.71485 0.005 . . 0.88889
Co12 Co 0.33333 0.66667 0.71485 0.005 . . 0.11111
Fe13 Fe 0.0 0.0 0.05787 0.005 . . 0.88889
Co14 Co 0.0 0.0 0.05787 0.005 . . 0.11111
Fe15 Fe 0.16832 0.3366 0.14646 0.005 . . 0.88889
Co16 Co 0.131 0.262 0.14646 0.005 . . 0.11111
O17 O 0.50117 0.00234 0.1107 0.01 . . 1.0
O18 O 0.33333 0.66667 0.53448 0.01 . . 1.0
O19 O 0.165 0.33 0.03634 0.01 . . 1.0
O20 O 0.16749 0.33498 0.6799 0.01 . . 1.0
O21 O 0.5 0.0 0.25 0.01 . . 1.0
O22 O 0.0 0.0 0.11344 0.01 . . 1.0
O23 O 0.33333 0.66667 0.17958 0.01 . . 1.0

