data_00-072-0211
# Copyright 2025 International Centre for Diffraction Data. All rights reserved.

_audit_creation_date                  2025-07-06
_audit_creation_method                'Generated by PDF-5+ 2025 4.25.0.2'

_chemical_name_systematic             'Lithium Manganese Oxide'
_chemical_formula_moiety              'Li Mn O2'
_chemical_formula_sum                 'Li Mn O2'
_chemical_formula_weight              93.88

_cell_length_a                        2.806079
_cell_length_b                        4.584635
_cell_length_c                        5.74495
_cell_angle_alpha                     90
_cell_angle_beta                      90
_cell_angle_gamma                     90
_cell_formula_units_Z                 2
_cell_volume                          73.91
_symmetry_cell_setting                orthorhombic
_symmetry_space_group_name_H-M        Pmmn
_symmetry_Int_Tables_number           59

loop_
_symmetry_equiv_pos_site_id
_symmetry_equiv_pos_as_xyz
1 x,y,z
2 -x,-y,-z
3 -x+1/2,y,z
4 x+1/2,-y,-z
5 x,-y+1/2,z
6 -x,y+1/2,-z
7 -x+1/2,-y+1/2,z
8 x+1/2,y+1/2,-z

loop_
_atom_site_label
_atom_site_type_symbol
_atom_site_fract_x
_atom_site_fract_y
_atom_site_fract_z
_atom_site_U_iso_or_equiv
_atom_site_symmetry_multiplicity
_atom_site_Wyckoff_symbol
_atom_site_occupancy
Mn1 Mn 0.25 0.75 0.130479 0.02902 . . 0.0717073
Li2 Li 0.25 0.75 0.130479 0.029 . . 0.928293
Li3 Li 0.25 0.75 0.634204 0.017 . . 0.0717073
Mn4 Mn 0.25 0.75 0.634204 0.01735 . . 0.928293
O5 O 0.25 0.25 0.13392 0.03 . . 0.762
O6 O 0.25 0.25 0.6186 0.03 . . 0.736

