data_00-070-0124
# Copyright 2025 International Centre for Diffraction Data. All rights reserved.

_audit_creation_date                  2025-07-06
_audit_creation_method                'Generated by PDF-5+ 2025 4.25.0.2'

_chemical_name_systematic             'Calcium Praseodymium Phosphate'
_chemical_formula_moiety              'Ca9 Pr ( P O4 )7'
_chemical_formula_sum                 'Ca9 O28 P7 Pr'
_chemical_formula_weight              1166.40

_cell_length_a                        10.4555(4)
_cell_length_b                        10.4555(4)
_cell_length_c                        37.452(3)
_cell_angle_alpha                     90
_cell_angle_beta                      90
_cell_angle_gamma                     120
_cell_formula_units_Z                 6
_cell_volume                          3545.64
_symmetry_cell_setting                hexagonal
_symmetry_space_group_name_H-M        R3cH
_symmetry_Int_Tables_number           161

loop_
_symmetry_equiv_pos_site_id
_symmetry_equiv_pos_as_xyz
1 x,y,z
2 -y,x-y,z
3 -x+y,-x,z
4 -y,-x,z+1/2
5 x,x-y,z+1/2
6 -x+y,y,z+1/2
7 x+2/3,y+1/3,z+1/3
8 -y+2/3,x-y+1/3,z+1/3
9 -x+y+2/3,-x+1/3,z+1/3
10 -y+2/3,-x+1/3,z+5/6
11 x+2/3,x-y+1/3,z+5/6
12 -x+y+2/3,y+1/3,z+5/6
13 x+1/3,y+2/3,z+2/3
14 -y+1/3,x-y+2/3,z+2/3
15 -x+y+1/3,-x+2/3,z+2/3
16 -y+1/3,-x+2/3,z+1/6
17 x+1/3,x-y+2/3,z+1/6
18 -x+y+1/3,y+2/3,z+1/6

loop_
_atom_site_label
_atom_site_type_symbol
_atom_site_fract_x
_atom_site_fract_y
_atom_site_fract_z
_atom_site_U_iso_or_equiv
_atom_site_symmetry_multiplicity
_atom_site_Wyckoff_symbol
_atom_site_occupancy
Ca1 Ca 0.485 0.9472 0.8313 0.013 . . 0.932
Pr2 Pr 0.485 0.9472 0.8313 0.013 . . 0.068
Ca3 Ca 0.62 0.811 0.9637 0.013 . . 0.933
Pr4 Pr 0.62 0.811 0.9637 0.013 . . 0.067
Ca5 Ca 0.3864 1.185 0.8928 0.013 . . 0.808
Pr6 Pr 0.3864 1.185 0.8928 0.013 . . 0.192
Ca7 Ca 0.3333 0.6667 0.8975 0.013 . . 1.0
P8 P 1.0 1.0 0.9998 0.016 . . 1.0
P9 P 0.683 0.83 0.8638 0.016 . . 1.0
P10 P 0.525 1.008 0.9304 0.016 . . 1.0
O11 O 0.724 0.823 0.9039 0.005 . . 1.0
O12 O 0.735 0.739 0.843 0.005 . . 1.0
O13 O 0.755 0.992 0.8538 0.005 . . 1.0
O14 O 0.52 0.759 0.8576 0.005 . . 1.0
O15 O 0.431 0.844 0.9405 0.005 . . 1.0
O16 O 0.453 1.099 0.9455 0.005 . . 1.0
O17 O 0.678 1.064 0.947 0.005 . . 1.0
O18 O 0.528 1.025 0.8903 0.005 . . 1.0
O19 O 0.853 0.865 0.9858 0.005 . . 1.0
O20 O 1.0 1.0 1.041 0.005 . . 1.0

