data_00-069-0651
# Copyright 2025 International Centre for Diffraction Data. All rights reserved.

_audit_creation_date                  2025-07-06
_audit_creation_method                'Generated by PDF-5+ 2025 4.25.0.2'

_chemical_name_systematic             'Bismuth Europium Magnesium'
_chemical_formula_moiety              'Eu14 Mg Bi11'
_chemical_formula_sum                 'Bi11 Eu14 Mg'
_chemical_formula_weight              4450.58

_cell_length_a                        17.6660(7)
_cell_length_b                        17.6660(7)
_cell_length_c                        23.2446(18)
_cell_angle_alpha                     90.0
_cell_angle_beta                      90.0
_cell_angle_gamma                     90.0
_cell_formula_units_Z                 8
_cell_volume                          7254.35
_symmetry_cell_setting                tetragonal
_symmetry_space_group_name_H-M        I41/acd
_symmetry_Int_Tables_number           142

loop_
_symmetry_equiv_pos_site_id
_symmetry_equiv_pos_as_xyz
1 x,y,z
2 -x,-y,-z
3 -x,y,z+1/2
4 x,-y,-z+1/2
5 y+3/4,x+3/4,z+3/4
6 -y+1/4,-x+1/4,-z+1/4
7 -y+1/4,x+3/4,z+1/4
8 y+3/4,-x+1/4,-z+3/4
9 x+1/2,-y,z
10 -x+1/2,y,-z
11 -x+1/2,-y,z+1/2
12 x+1/2,y,-z+1/2
13 y+1/4,-x+1/4,z+3/4
14 -y+3/4,x+3/4,-z+1/4
15 -y+3/4,-x+1/4,z+1/4
16 y+1/4,x+3/4,-z+3/4
17 x+1/2,y+1/2,z+1/2
18 -x+1/2,-y+1/2,-z+1/2
19 -x+1/2,y+1/2,z
20 x+1/2,-y+1/2,-z
21 y+1/4,x+1/4,z+1/4
22 -y+3/4,-x+3/4,-z+3/4
23 -y+3/4,x+1/4,z+3/4
24 y+1/4,-x+3/4,-z+1/4
25 x,-y+1/2,z+1/2
26 -x,y+1/2,-z+1/2
27 -x,-y+1/2,z
28 x,y+1/2,-z
29 y+3/4,-x+3/4,z+1/4
30 -y+1/4,x+1/4,-z+3/4
31 -y+1/4,-x+3/4,z+3/4
32 y+3/4,x+1/4,-z+1/4

loop_
_atom_site_label
_atom_site_type_symbol
_atom_site_fract_x
_atom_site_fract_y
_atom_site_fract_z
_atom_site_U_iso_or_equiv
_atom_site_symmetry_multiplicity
_atom_site_Wyckoff_symbol
_atom_site_occupancy
Eu1 Eu 0.04201 0.07356 0.17182 0.02957 . . 1.0
Eu2 Eu 0.0227 0.37638 0.00244 0.03363 . . 1.0
Eu3 Eu 0.35483 0.0 0.25 0.02897 . . 1.0
Eu4 Eu 0.34139 0.07157 0.09292 0.03363 . . 1.0
Mg5 Mg 0.0 0.25 0.375 0.02467 . . 1.0
Bi6 Bi 0.13668 0.38668 0.125 0.028 . . 1.0
Bi7 Bi 0.359 0.25506 0.06036 0.02977 . . 1.0
Bi8 Bi 0.13108 0.02669 0.04697 0.0299 . . 1.0
Bi9 Bi 0.0 0.25 0.125 0.02957 . . 1.0

loop_
_atom_site_aniso_label
_atom_site_aniso_U_11
_atom_site_aniso_U_12
_atom_site_aniso_U_13
_atom_site_aniso_U_22
_atom_site_aniso_U_23
_atom_site_aniso_U_33
Eu1 0.027 -2.0E-4 0.002 0.0255 6.0E-4 0.0362
Eu2 0.0285 0.0039 0.0018 0.0309 -0.0023 0.0415
Eu3 0.0263 0.0 0.0 0.0266 0.0015 0.034
Eu4 0.0408 0.002 0.0052 0.0263 0.0013 0.0338
Mg5 0.023 0.0 0.0 0.023 0.0 0.028
Bi6 0.025 -9.0E-4 5.0E-4 0.025 -5.0E-4 0.034
Bi7 0.0253 -0.0021 -0.002 0.0261 0.0027 0.0379
Bi8 0.0326 0.0043 0.0013 0.0251 0.0 0.032
Bi9 0.0264 0.0036 0.0 0.0264 0.0 0.0359

