data_00-062-0563
# Copyright 2025 International Centre for Diffraction Data. All rights reserved.

_audit_creation_date                  2025-07-06
_audit_creation_method                'Generated by PDF-5+ 2025 4.25.0.2'

_chemical_name_systematic             'Barium Europium Titanium Niobium Oxide'
_chemical_formula_moiety              'Ba4 Eu Ti Nb9 O30'
_chemical_formula_sum                 'Ba4 Eu Nb9 O30 Ti'
_chemical_formula_weight              2065.27

# Atomic parameters are cross-referenced from PDF entry 04-021-8004

_cell_length_a                        12.44285(10)
_cell_length_b                        12.44285(10)
_cell_length_c                        3.94140(5)
_cell_angle_alpha                     90
_cell_angle_beta                      90
_cell_angle_gamma                     90
_cell_formula_units_Z                 2
_cell_volume                          610.23
_symmetry_cell_setting                tetragonal
_symmetry_space_group_name_H-M        P4bm
_symmetry_Int_Tables_number           100

loop_
_symmetry_equiv_pos_site_id
_symmetry_equiv_pos_as_xyz
1 x,y,z
2 -x,-y,z
3 x+1/2,-y+1/2,z
4 -x+1/2,y+1/2,z
5 -y,x,z
6 y,-x,z
7 y+1/2,x+1/2,z
8 -y+1/2,-x+1/2,z

loop_
_atom_site_label
_atom_site_type_symbol
_atom_site_fract_x
_atom_site_fract_y
_atom_site_fract_z
_atom_site_U_iso_or_equiv
_atom_site_symmetry_multiplicity
_atom_site_Wyckoff_symbol
_atom_site_occupancy
Eu1 Eu 0.0 0.0 0.024 0.0013 2 a 0.5
Ba2 Ba 0.17285 0.67285 -0.0138 0.0238 4 c 1.0
Nb3 Nb 0.0 0.5 0.504 0.0121 2 b 0.9
Ti4 Ti 0.0 0.5 0.504 0.0121 2 b 0.1
Nb5 Nb 0.07241 0.21071 0.4796 0.0058 8 d 0.9
Ti6 Ti 0.07241 0.21071 0.4796 0.0058 8 d 0.1
O7 O 0.1348 0.0723 0.556 0.0156 8 d 1.0
O8 O 0.3388 0.0061 0.562 0.0042 8 d 1.0
O9 O 0.0698 0.2131 0.043 0.0319 8 d 1.0
O10 O 0.2872 0.7872 0.413 0.0069 4 c 1.0
O11 O 0.0 0.5 -0.004 0.0319 2 b 1.0

