data_00-063-0774
# Copyright 2025 International Centre for Diffraction Data. All rights reserved.

_audit_creation_date                  2025-07-06
_audit_creation_method                'Generated by PDF-5+ 2025 4.25.0.2'

_chemical_name_systematic             'Potassium Sodium Niobium Oxide'
_chemical_name_common                 'potassium sodium niobate'
_chemical_formula_moiety              'K0.30 Na0.70 Nb O3'
_chemical_formula_sum                 'K0.3 Na0.7 Nb O3'
_chemical_formula_weight              168.73

_cell_length_a                        5.65868(12)
_cell_length_b                        3.93856(5)
_cell_length_c                        5.62480(13)
_cell_angle_alpha                     90.0
_cell_angle_beta                      90.073(3)
_cell_angle_gamma                     90.0
_cell_formula_units_Z                 2
_cell_volume                          125.36
_symmetry_cell_setting                monoclinic
_symmetry_space_group_name_H-M        P1m1
_symmetry_Int_Tables_number           6

loop_
_symmetry_equiv_pos_site_id
_symmetry_equiv_pos_as_xyz
1 x,y,z
2 x,-y,z

loop_
_atom_site_label
_atom_site_type_symbol
_atom_site_fract_x
_atom_site_fract_y
_atom_site_fract_z
_atom_site_U_iso_or_equiv
_atom_site_symmetry_multiplicity
_atom_site_Wyckoff_symbol
_atom_site_occupancy
Na1 Na 0.5389 0.5 0.018 . . . 0.7
K2 K 0.5389 0.5 0.018 . . . 0.3
Na3 Na 0.0389 0.5 0.518 . . . 0.7
K4 K 0.0389 0.5 0.518 . . . 0.3
Nb5 Nb 0.0362 0.0 -0.003 . . . 1.0
Nb6 Nb 0.5362 0.0 0.497 . . . 1.0
O7 O 0.0 0.5 0.0 . . . 1.0
O8 O 0.5 0.5 0.5 . . . 1.0
O9 O 0.2737 0.0 0.2286 . . . 1.0
O10 O 0.2286 0.0 0.7263 . . . 1.0
O11 O 0.7714 0.0 0.2737 . . . 1.0
O12 O 0.7263 0.0 0.7714 . . . 1.0

