data_00-065-0214
# Copyright 2025 International Centre for Diffraction Data. All rights reserved.

_audit_creation_date                  2025-07-06
_audit_creation_method                'Generated by PDF-5+ 2025 4.25.0.2'

_chemical_name_systematic             'Copper Europium Oxide Chloride Selenite'
_chemical_formula_moiety              'Cu3 Eu ( Se O3 )2 O2 Cl'
_chemical_formula_sum                 'Cl Cu3 Eu O8 Se2'
_chemical_formula_weight              663.97

_cell_length_a                        6.33943(7)
_cell_length_b                        9.53447(15)
_cell_length_c                        7.02849(9)
_cell_angle_alpha                     90.0
_cell_angle_beta                      90.0
_cell_angle_gamma                     90.0
_cell_formula_units_Z                 2
_cell_volume                          424.82
_symmetry_cell_setting                orthorhombic
_symmetry_space_group_name_H-M        Pmmn
_symmetry_Int_Tables_number           59

loop_
_symmetry_equiv_pos_site_id
_symmetry_equiv_pos_as_xyz
1 x,y,z
2 -x,-y,-z
3 -x+1/2,y,z
4 x+1/2,-y,-z
5 x,-y+1/2,z
6 -x,y+1/2,-z
7 -x+1/2,-y+1/2,z
8 x+1/2,y+1/2,-z

loop_
_atom_site_label
_atom_site_type_symbol
_atom_site_fract_x
_atom_site_fract_y
_atom_site_fract_z
_atom_site_B_iso_or_equiv
_atom_site_symmetry_multiplicity
_atom_site_Wyckoff_symbol
_atom_site_occupancy
Eu1 Eu 0.25 0.25 0.26443 1.0 . . 1.0
Cu2 Cu 0.0 0.0 0.0 1.0 . . 1.0
Cu3 Cu 0.25 0.25 0.783 1.0 . . 1.0
Se4 Se 0.25 0.55676 0.58731 1.0 . . 1.0
Cl5 Cl 0.25 0.75 0.1677 1.0 . . 1.0
O6 O 0.25 0.0957 0.9629 1.0 . . 1.0
O7 O 0.0598 0.6018 0.7313 1.0 . . 1.0
O8 O 0.25 0.125 0.5508 1.0 . . 1.0

