data_00-053-0342
# Copyright 2025 International Centre for Diffraction Data. All rights reserved.

_audit_creation_date                  2025-07-04
_audit_creation_method                'Generated by PDF-5+ 2025 4.25.0.2'

_chemical_name_systematic             'Sodium Copper Antimony Oxide'
_chemical_formula_moiety              'Na3 Cu2 Sb O6'
_chemical_formula_sum                 'Cu2 Na3 O6 Sb'
_chemical_formula_weight              413.82

# Atomic parameters are cross-referenced from PDF entry 04-011-8152

_cell_length_a                        5.6759(1)
_cell_length_b                        8.8659(1)
_cell_length_c                        5.8379(1)
_cell_angle_alpha                     90
_cell_angle_beta                      113.289(1)
_cell_angle_gamma                     90
_cell_formula_units_Z                 2
_cell_volume                          269.84
_symmetry_cell_setting                monoclinic
_symmetry_space_group_name_H-M        C2/m
_symmetry_Int_Tables_number           12

loop_
_symmetry_equiv_pos_site_id
_symmetry_equiv_pos_as_xyz
1 x,y,z
2 -x,-y,-z
3 x,-y,z
4 -x,y,-z
5 x+1/2,y+1/2,z
6 -x+1/2,-y+1/2,-z
7 x+1/2,-y+1/2,z
8 -x+1/2,y+1/2,-z

loop_
_atom_site_label
_atom_site_type_symbol
_atom_site_fract_x
_atom_site_fract_y
_atom_site_fract_z
_atom_site_U_iso_or_equiv
_atom_site_symmetry_multiplicity
_atom_site_Wyckoff_symbol
_atom_site_occupancy
Cu1 Cu 0.0 0.6667 0.0 0.0054 4 g 1.0
Sb2 Sb 0.0 0.0 0.0 0.0028 2 a 1.0
O3 O 0.2931 0.334 0.775 0.0045 8 j 1.0
O4 O 0.2404 0.5 0.1774 0.0045 4 i 1.0
Na5 Na 0.0 0.5 0.5 0.00926 2 d 1.0
Na6 Na 0.5 0.328 0.5 0.00926 4 h 1.0

loop_
_atom_site_aniso_label
_atom_site_aniso_U_11
_atom_site_aniso_U_12
_atom_site_aniso_U_13
_atom_site_aniso_U_22
_atom_site_aniso_U_23
_atom_site_aniso_U_33
Na5 0.011 0.0 0.0 0.01 0.0 0.004
Na6 0.011 0.0 0.0 0.01 0.0 0.004

