data_00-068-0155
# Copyright 2025 International Centre for Diffraction Data. All rights reserved.

_audit_creation_date                  2025-07-06
_audit_creation_method                'Generated by PDF-5+ 2025 4.25.0.2'

_chemical_name_systematic             'Germanium Indium Potassium Sulfide'
_chemical_name_common                 '\b-K In Ge S4'
_chemical_formula_moiety              'K In Ge S4'
_chemical_formula_sum                 'Ge In K S4'
_chemical_formula_weight              354.80

_cell_length_a                        13.0366(5)
_cell_length_b                        13.0366(5)
_cell_length_c                        13.0366(5)
_cell_angle_alpha                     90.0
_cell_angle_beta                      90.0
_cell_angle_gamma                     90.0
_cell_formula_units_Z                 12
_cell_volume                          2198.42
_symmetry_cell_setting                cubic
_symmetry_space_group_name_H-M        Pa-3
_symmetry_Int_Tables_number           205

loop_
_symmetry_equiv_pos_site_id
_symmetry_equiv_pos_as_xyz
1 x,y,z
2 -x,-y,-z
3 x+1/2,-y+1/2,-z
4 -x+1/2,y+1/2,z
5 -x,y+1/2,-z+1/2
6 x,-y+1/2,z+1/2
7 -x+1/2,-y,z+1/2
8 x+1/2,y,-z+1/2
9 z,x,y
10 -z,-x,-y
11 z+1/2,-x+1/2,-y
12 -z+1/2,x+1/2,y
13 -z,x+1/2,-y+1/2
14 z,-x+1/2,y+1/2
15 -z+1/2,-x,y+1/2
16 z+1/2,x,-y+1/2
17 y,z,x
18 -y,-z,-x
19 y+1/2,-z+1/2,-x
20 -y+1/2,z+1/2,x
21 -y,z+1/2,-x+1/2
22 y,-z+1/2,x+1/2
23 -y+1/2,-z,x+1/2
24 y+1/2,z,-x+1/2

loop_
_atom_site_label
_atom_site_type_symbol
_atom_site_fract_x
_atom_site_fract_y
_atom_site_fract_z
_atom_site_U_iso_or_equiv
_atom_site_symmetry_multiplicity
_atom_site_Wyckoff_symbol
_atom_site_occupancy
K1 K 0.37507 0.37507 0.37507 0.0474 . . 1.0
K2 K 0.0 0.5 0.5 0.0901 . . 1.0
In3 In 0.14163 0.62761 0.19689 0.02297 . . 0.5
Ge4 Ge 0.14163 0.62761 0.19689 0.02297 . . 0.5
S5 S -0.02725 0.57811 0.22805 0.0491 . . 1.0
S6 S 0.20699 0.62856 0.3628 0.0388 . . 1.0

