data_00-068-0607
# Copyright 2025 International Centre for Diffraction Data. All rights reserved.

_audit_creation_date                  2025-07-06
_audit_creation_method                'Generated by PDF-5+ 2025 4.25.0.2'

_chemical_name_systematic             'Gadolinium Cobalt Aluminum'
_chemical_formula_moiety              'Gd6 Co2.2 Al0.8'
_chemical_formula_sum                 'Al0.8 Co2.2 Gd6'
_chemical_formula_weight              1094.74

_cell_length_a                        9.4140(2)
_cell_length_b                        9.5825(2)
_cell_length_c                        10.0435(3)
_cell_angle_alpha                     90.0
_cell_angle_beta                      90.0
_cell_angle_gamma                     90.0
_cell_formula_units_Z                 4
_cell_volume                          906.02
_symmetry_cell_setting                orthorhombic
_symmetry_space_group_name_H-M        Immm
_symmetry_Int_Tables_number           71

loop_
_symmetry_equiv_pos_site_id
_symmetry_equiv_pos_as_xyz
1 x,y,z
2 -x,-y,-z
3 x,-y,-z
4 -x,y,z
5 -x,y,-z
6 x,-y,z
7 -x,-y,z
8 x,y,-z
9 x+1/2,y+1/2,z+1/2
10 -x+1/2,-y+1/2,-z+1/2
11 x+1/2,-y+1/2,-z+1/2
12 -x+1/2,y+1/2,z+1/2
13 -x+1/2,y+1/2,-z+1/2
14 x+1/2,-y+1/2,z+1/2
15 -x+1/2,-y+1/2,z+1/2
16 x+1/2,y+1/2,-z+1/2

loop_
_atom_site_label
_atom_site_type_symbol
_atom_site_fract_x
_atom_site_fract_y
_atom_site_fract_z
_atom_site_U_iso_or_equiv
_atom_site_symmetry_multiplicity
_atom_site_Wyckoff_symbol
_atom_site_occupancy
Gd1 Gd 0.2849 0.1878 0.0 . . . 1.0
Gd2 Gd 0.3022 0.0 0.3227 . . . 1.0
Gd3 Gd 0.0 0.1928 0.2356 . . . 1.0
Co4 Co 0.5 0.0 0.1205 . . . 1.0
Co5 Co 0.0 0.3468 0.0 . . . 1.0
Al6 Al 0.5 0.5 0.0 . . . 1.0
Co7 Co 0.0 0.0 0.0 . . . 0.4
Al8 Al 0.0 0.0 0.0 . . . 0.6

