data_00-052-1583
# Copyright 2025 International Centre for Diffraction Data. All rights reserved.

_audit_creation_date                  2025-07-04
_audit_creation_method                'Generated by PDF-5+ 2025 4.25.0.2'

_chemical_name_systematic             'Sodium Strontium Niobium Oxide'
_chemical_formula_moiety              'Na0.5 Sr0.5 Nb O3'
_chemical_formula_sum                 'Na0.5 Nb O3 Sr0.5'
_chemical_formula_weight              196.21

# Atomic parameters are cross-referenced from PDF entry 04-010-4775

_cell_length_a                        5.6201(3)
_cell_length_b                        5.6201(3)
_cell_length_c                        3.9880(3)
_cell_angle_alpha                     90
_cell_angle_beta                      90
_cell_angle_gamma                     90
_cell_formula_units_Z                 2
_cell_volume                          125.96
_symmetry_cell_setting                tetragonal
_symmetry_space_group_name_H-M        P4/mbm
_symmetry_Int_Tables_number           127

loop_
_symmetry_equiv_pos_site_id
_symmetry_equiv_pos_as_xyz
1 x,y,z
2 -x,-y,-z
3 -x,-y,z
4 x,y,-z
5 x+1/2,-y+1/2,z
6 -x+1/2,y+1/2,-z
7 -x+1/2,y+1/2,z
8 x+1/2,-y+1/2,-z
9 -y,x,z
10 y,-x,-z
11 y,-x,z
12 -y,x,-z
13 y+1/2,x+1/2,z
14 -y+1/2,-x+1/2,-z
15 -y+1/2,-x+1/2,z
16 y+1/2,x+1/2,-z

loop_
_atom_site_label
_atom_site_type_symbol
_atom_site_fract_x
_atom_site_fract_y
_atom_site_fract_z
_atom_site_U_iso_or_equiv
_atom_site_symmetry_multiplicity
_atom_site_Wyckoff_symbol
_atom_site_occupancy
Na1 Na 0.0 0.5 0.5 0.0152 2 c 0.4885
Sr2 Sr 0.0 0.5 0.5 0.0152 2 c 0.4885
Nb3 Nb 0.0 0.0 0.0 0.00693 2 a 1.0
O4 O 0.0 0.0 0.5 0.015 2 b 1.0
O5 O 0.2733 0.7733 0.0 0.01368 4 g 1.0

loop_
_atom_site_aniso_label
_atom_site_aniso_U_11
_atom_site_aniso_U_12
_atom_site_aniso_U_13
_atom_site_aniso_U_22
_atom_site_aniso_U_23
_atom_site_aniso_U_33
Na1 0.0133 -5.0E-4 0.0 0.0133 0.0 0.019
Sr2 0.0133 -5.0E-4 0.0 0.0133 0.0 0.019
Nb3 0.0014 0.0 0.0 0.0014 0.0 0.018
O4 0.022 0.0 0.0 0.022 0.0 0.001

