data_00-065-0615
# Copyright 2025 International Centre for Diffraction Data. All rights reserved.

_audit_creation_date                  2025-07-06
_audit_creation_method                'Generated by PDF-5+ 2025 4.25.0.2'

_chemical_name_systematic             'Lithium Sodium Cobalt Iron Fluoride Phosphate'
_chemical_formula_moiety              'Li Na Co0.5 Fe0.5 ( P O4 ) F'
_chemical_formula_sum                 'Co0.5 F Fe0.5 Li Na O4 P'
_chemical_formula_weight              201.29

_cell_length_a                        10.9530(4)
_cell_length_b                        6.3351(5)
_cell_length_c                        11.3936(4)
_cell_angle_alpha                     90.0
_cell_angle_beta                      90.0
_cell_angle_gamma                     90.0
_cell_formula_units_Z                 8
_cell_volume                          790.58
_symmetry_cell_setting                orthorhombic
_symmetry_space_group_name_H-M        Pnma
_symmetry_Int_Tables_number           62

loop_
_symmetry_equiv_pos_site_id
_symmetry_equiv_pos_as_xyz
1 x,y,z
2 -x,-y,-z
3 x+1/2,-y+1/2,-z+1/2
4 -x+1/2,y+1/2,z+1/2
5 -x,y+1/2,-z
6 x,-y+1/2,z
7 -x+1/2,-y,z+1/2
8 x+1/2,y,-z+1/2

loop_
_atom_site_label
_atom_site_type_symbol
_atom_site_fract_x
_atom_site_fract_y
_atom_site_fract_z
_atom_site_B_iso_or_equiv
_atom_site_symmetry_multiplicity
_atom_site_Wyckoff_symbol
_atom_site_occupancy
Co1 Co 0.0 0.0 0.0 1.0 . . 0.5
Fe2 Fe 0.0 0.0 0.0 1.0 . . 0.5
Co3 Co 0.5 0.0 0.0 1.0 . . 0.5
Fe4 Fe 0.5 0.0 0.0 1.0 . . 0.5
P5 P 0.464 0.25 0.248 1.0 . . 1.0
P6 P 0.2422 0.75 0.0829 1.0 . . 1.0
Na7 Na 0.2785 0.5004 0.8459 1.0 . . 1.0
Li8 Li 0.733 0.25 0.4249 1.0 . . 1.0
Li9 Li 0.0 0.25 0.8731 1.0 . . 1.0
O10 O 0.3141 0.464 0.5422 1.0 . . 1.0
O11 O 0.727 0.25 0.7891 1.0 . . 1.0
O12 O 0.3236 0.25 0.245 1.0 . . 1.0
O13 O 0.8773 0.75 0.4807 1.0 . . 1.0
O14 O 0.5217 0.25 0.4057 1.0 . . 1.0
O15 O 0.9978 0.9417 0.6842 1.0 . . 1.0
F16 F 0.6287 0.75 0.0198 1.0 . . 1.0
F17 F 0.5659 0.25 0.612 1.0 . . 1.0

