data_00-045-0345
# Copyright 2025 International Centre for Diffraction Data. All rights reserved.

_audit_creation_date                  2025-07-04
_audit_creation_method                'Generated by PDF-5+ 2025 4.25.0.2'

_chemical_name_systematic             'Calcium Chromium Phosphate'
_chemical_formula_moiety              'Ca9 Cr ( P O4 )7'
_chemical_formula_sum                 'Ca9 Cr O28 P7'
_chemical_formula_weight              1077.49
_chemical_melting_point               1773.0

# Atomic parameters are cross-referenced from PDF entry 04-010-8305

_cell_length_a                        10.321
_cell_length_b                        10.321
_cell_length_c                        37.13
_cell_angle_alpha                     90
_cell_angle_beta                      90
_cell_angle_gamma                     120
_cell_formula_units_Z                 6
_cell_volume                          3425.30
_symmetry_cell_setting                hexagonal
_symmetry_space_group_name_H-M        R3c
_symmetry_Int_Tables_number           161

loop_
_symmetry_equiv_pos_site_id
_symmetry_equiv_pos_as_xyz
1 x,y,z
2 -y,x-y,z
3 -x+y,-x,z
4 -y,-x,z+1/2
5 x,x-y,z+1/2
6 -x+y,y,z+1/2
7 x+2/3,y+1/3,z+1/3
8 -y+2/3,x-y+1/3,z+1/3
9 -x+y+2/3,-x+1/3,z+1/3
10 -y+2/3,-x+1/3,z+5/6
11 x+2/3,x-y+1/3,z+5/6
12 -x+y+2/3,y+1/3,z+5/6
13 x+1/3,y+2/3,z+2/3
14 -y+1/3,x-y+2/3,z+2/3
15 -x+y+1/3,-x+2/3,z+2/3
16 -y+1/3,-x+2/3,z+1/6
17 x+1/3,x-y+2/3,z+1/6
18 -x+y+1/3,y+2/3,z+1/6

loop_
_atom_site_label
_atom_site_type_symbol
_atom_site_fract_x
_atom_site_fract_y
_atom_site_fract_z
_atom_site_U_iso_or_equiv
_atom_site_symmetry_multiplicity
_atom_site_Wyckoff_symbol
_atom_site_occupancy
O1 O 0.003 0.279 0.109 . 18 b 1.0
O2 O 0.076 0.425 0.0194 . 18 b 1.0
O3 O 0.094 0.176 0.2684 . 18 b 1.0
O4 O 0.133 0.15 0.4867 . 18 b 1.0
Ca5 Ca 0.148 0.275 0.0558 . 18 b 1.0
Ca6 Ca 0.148 0.281 0.1624 . 18 b 1.0
O7 O 0.176 0.081 0.1972 . 18 b 1.0
O8 O 0.245 0.218 0.1144 . 18 b 1.0
Ca9 Ca 0.289 0.131 0.2951 . 18 b 1.0
O10 O 0.289 0.142 0.0543 . 18 b 1.0
P11 P 0.323 0.139 0.0948 . 18 b 1.0
P12 P 0.351 0.164 0.1991 . 18 b 1.0
O13 O 0.389 0.05 0.1768 . 18 b 1.0
O14 O 0.396 0.149 0.2373 . 18 b 1.0
P15 P 0.0 0.0 0.0 . 6 a 1.0
O16 O 0.0 0.0 0.0435 . 6 a 1.0
Cr17 Cr 0.0 0.0 0.2287 . 6 a 1.0

