data_00-067-0540
# Copyright 2025 International Centre for Diffraction Data. All rights reserved.

_audit_creation_date                  2025-07-06
_audit_creation_method                'Generated by PDF-5+ 2025 4.25.0.2'

_chemical_name_systematic             'Tin Gallium Indium Titanium Oxide'
_chemical_formula_moiety              'Ga2 In6 Sn1.9 Ti0.1 O16'
_chemical_formula_sum                 'Ga2 In6 O16 Sn1.9 Ti0.1'
_chemical_formula_weight              1314.67

_cell_length_a                        11.15504(7)
_cell_length_b                        11.15504(7)
_cell_length_c                        10.01909(8)
_cell_angle_alpha                     90.0
_cell_angle_beta                      90.0
_cell_angle_gamma                     90.0
_cell_formula_units_Z                 4
_cell_volume                          1246.72
_symmetry_cell_setting                tetragonal
_symmetry_space_group_name_H-M        I41/a
_symmetry_Int_Tables_number           88

loop_
_symmetry_equiv_pos_site_id
_symmetry_equiv_pos_as_xyz
1 x,y,z
2 -x,-y,-z
3 -x+1/2,-y,z+1/2
4 x+1/2,y,-z+1/2
5 -y+3/4,x+1/4,z+1/4
6 y+1/4,-x+3/4,-z+3/4
7 y+3/4,-x+3/4,z+3/4
8 -y+1/4,x+1/4,-z+1/4
9 x+1/2,y+1/2,z+1/2
10 -x+1/2,-y+1/2,-z+1/2
11 -x,-y+1/2,z
12 x,y+1/2,-z
13 -y+1/4,x+3/4,z+3/4
14 y+3/4,-x+1/4,-z+1/4
15 y+1/4,-x+1/4,z+1/4
16 -y+3/4,x+3/4,-z+3/4

loop_
_atom_site_label
_atom_site_type_symbol
_atom_site_fract_x
_atom_site_fract_y
_atom_site_fract_z
_atom_site_U_iso_or_equiv
_atom_site_symmetry_multiplicity
_atom_site_Wyckoff_symbol
_atom_site_occupancy
Ga1 Ga 0.0 0.25 0.625 0.00311 . . 1.0
In2 In 0.0 0.25 0.125 0.01243 . . 1.0
In3 In 0.29643 0.373469 0.14808 0.01132 . . 0.92
Sn4 Sn 0.29643 0.373469 0.14808 0.01132 . . 0.055
Ga5 Ga 0.19712 0.664408 0.129081 0.00445 . . 0.25
In6 In 0.19712 0.664408 0.129081 0.00445 . . 0.33
Sn7 Sn 0.19712 0.664408 0.129081 0.00445 . . 0.42
O8 O 0.27884 0.04243 -0.01037 0.0065 . . 1.0
O9 O 0.04242 0.11434 -0.02543 0.0042 . . 1.0
O10 O 0.53206 0.11589 -0.02381 0.0065 . . 1.0
O11 O 0.80906 0.19612 -0.00134 0.0066 . . 1.0
Ti12 Ti 0.29643 0.373469 0.14808 0.01131 . . 0.025

