data_00-050-0104
# Copyright 2025 International Centre for Diffraction Data. All rights reserved.

_audit_creation_date                  2025-07-04
_audit_creation_method                'Generated by PDF-5+ 2025 4.25.0.2'

_chemical_name_systematic             'Manganese Scandium Antimony Oxide'
_chemical_formula_moiety              'Mn2 Sc Sb O6'
_chemical_formula_sum                 'Mn2 O6 Sb Sc'
_chemical_formula_weight              372.59

# Atomic parameters are cross-referenced from PDF entry 04-002-4492

_cell_length_a                        8.8713
_cell_length_b                        8.8713
_cell_length_c                        10.5875
_cell_angle_alpha                     90
_cell_angle_beta                      90
_cell_angle_gamma                     120
_cell_formula_units_Z                 6
_cell_volume                          721.60
_symmetry_cell_setting                hexagonal
_symmetry_space_group_name_H-M        R-3
_symmetry_Int_Tables_number           148

loop_
_symmetry_equiv_pos_site_id
_symmetry_equiv_pos_as_xyz
1 x,y,z
2 -x,-y,-z
3 -y,x-y,z
4 y,-x+y,-z
5 -x+y,-x,z
6 x-y,x,-z
7 x+2/3,y+1/3,z+1/3
8 -x+2/3,-y+1/3,-z+1/3
9 -y+2/3,x-y+1/3,z+1/3
10 y+2/3,-x+y+1/3,-z+1/3
11 -x+y+2/3,-x+1/3,z+1/3
12 x-y+2/3,x+1/3,-z+1/3
13 x+1/3,y+2/3,z+2/3
14 -x+1/3,-y+2/3,-z+2/3
15 -y+1/3,x-y+2/3,z+2/3
16 y+1/3,-x+y+2/3,-z+2/3
17 -x+y+1/3,-x+2/3,z+2/3
18 x-y+1/3,x+2/3,-z+2/3

loop_
_atom_site_label
_atom_site_type_symbol
_atom_site_fract_x
_atom_site_fract_y
_atom_site_fract_z
_atom_site_U_iso_or_equiv
_atom_site_symmetry_multiplicity
_atom_site_Wyckoff_symbol
_atom_site_occupancy
O1 O 0.0296 0.2008 0.4011 . 18 f 1.0
Mn2 Mn 0.03993 0.26517 0.21157 . 18 f 0.67
Sc3 Sc 0.03993 0.26517 0.21157 . 18 f 0.33
O4 O 0.1853 0.1599 0.1155 . 18 f 1.0
Sb5 Sb 0.0 0.0 0.5 . 3 b 1.0
Sb6 Sb 0.0 0.0 0.0 . 3 a 1.0

