data_00-050-1774
# Copyright 2025 International Centre for Diffraction Data. All rights reserved.

_audit_creation_date                  2025-07-04
_audit_creation_method                'Generated by PDF-5+ 2025 4.25.0.2'

_chemical_name_systematic             'Copper Chromium Vanadium Oxide'
_chemical_formula_moiety              'Cu4.05 Cr3.30 ( V O4 )6'
_chemical_formula_sum                 'Cr3.3 Cu4.05 O24 V6'
_chemical_formula_weight              1118.57

# Atomic parameters are cross-referenced from PDF entry 04-009-1755

_cell_length_a                        4.89650(8)
_cell_length_b                        10.2035(2)
_cell_length_c                        17.1407(3)
_cell_angle_alpha                     90
_cell_angle_beta                      90
_cell_angle_gamma                     90
_cell_formula_units_Z                 4
_cell_volume                          856.37
_symmetry_cell_setting                orthorhombic
_symmetry_space_group_name_H-M        Pnma
_symmetry_Int_Tables_number           62

loop_
_symmetry_equiv_pos_site_id
_symmetry_equiv_pos_as_xyz
1 x,y,z
2 -x,-y,-z
3 x+1/2,-y+1/2,-z+1/2
4 -x+1/2,y+1/2,z+1/2
5 -x,y+1/2,-z
6 x,-y+1/2,z
7 -x+1/2,-y,z+1/2
8 x+1/2,y,-z+1/2

loop_
_atom_site_label
_atom_site_type_symbol
_atom_site_fract_x
_atom_site_fract_y
_atom_site_fract_z
_atom_site_B_iso_or_equiv
_atom_site_symmetry_multiplicity
_atom_site_Wyckoff_symbol
_atom_site_occupancy
Cu1 Cu 0.2071 0.25 0.8233 1.23 4 c 1.0
Cr2 Cr 0.2445 0.4279 0.9732 0.1 8 d 0.825
Cu3 Cu 0.2445 0.4279 0.9732 0.1 8 d 0.175
Cu4 Cu 0.9015 0.75 0.7485 1.0 4 c 0.675
V5 V -0.2215 0.25 0.0561 0.95 4 c 1.0
V6 V 0.7156 0.4726 0.8443 0.78 8 d 1.0
O7 O 0.653 0.6207 0.7933 1.5 8 d 1.0
O8 O 0.42 0.3889 0.8726 1.0 8 d 1.0
O9 O 0.045 0.25 0.9961 0.7 4 c 1.0
O10 O 0.551 0.3889 0.0312 1.9 8 d 1.0
O11 O 0.923 0.5014 0.9308 0.7 8 d 1.0
O12 O 0.652 0.75 0.6514 0.9 4 c 1.0
O13 O -0.079 0.3733 0.7904 1.2 8 d 1.0

