data_00-062-0163
# Copyright 2025 International Centre for Diffraction Data. All rights reserved.

_audit_creation_date                  2025-07-06
_audit_creation_method                'Generated by PDF-5+ 2025 4.25.0.2'

_chemical_name_systematic             'Silver Iron Phosphate'
_chemical_formula_moiety              'Ag Fe P2 O7'
_chemical_formula_sum                 'Ag Fe O7 P2'
_chemical_formula_weight              337.65

_cell_length_a                        7.33380(10)
_cell_length_b                        7.97310(10)
_cell_length_c                        9.5665(2)
_cell_angle_alpha                     90.0
_cell_angle_beta                      111.823(2)
_cell_angle_gamma                     90.0
_cell_formula_units_Z                 4
_cell_volume                          518.73
_symmetry_cell_setting                monoclinic
_symmetry_space_group_name_H-M        P121/c1
_symmetry_Int_Tables_number           14

loop_
_symmetry_equiv_pos_site_id
_symmetry_equiv_pos_as_xyz
1 x,y,z
2 -x,-y,-z
3 -x,y+1/2,-z+1/2
4 x,-y+1/2,z+1/2

loop_
_atom_site_label
_atom_site_type_symbol
_atom_site_fract_x
_atom_site_fract_y
_atom_site_fract_z
_atom_site_U_iso_or_equiv
_atom_site_symmetry_multiplicity
_atom_site_Wyckoff_symbol
_atom_site_occupancy
Ag1 Ag 0.20603 0.52623 0.190013 0.02157 . . 1.0
Fe2 Fe -0.23945 0.49146 0.25065 0.00466 . . 1.0
P3 P 0.42541 0.74656 0.04423 0.00375 . . 1.0
P4 P 0.82574 0.79124 0.04625 0.00408 . . 1.0
O5 O 0.61892 0.84715 0.05373 0.00858 . . 1.0
O6 O -0.14019 0.61013 0.10257 0.0077 . . 1.0
O7 O -0.31815 0.36631 0.39243 0.00929 . . 1.0
O8 O -0.18684 0.69738 0.38515 0.00819 . . 1.0
O9 O -0.30805 0.29007 0.11975 0.00954 . . 1.0
O10 O 0.03411 0.41434 0.34703 0.00855 . . 1.0
O11 O 0.49228 0.58832 0.13977 0.00748 . . 1.0

