data_00-070-0081
# Copyright 2025 International Centre for Diffraction Data. All rights reserved.

_audit_creation_date                  2025-07-06
_audit_creation_method                'Generated by PDF-5+ 2025 4.25.0.2'

_chemical_name_systematic             'Calcium Gallium Oxide'
_chemical_name_common                 '\a-Ca Ga2 O4'
_chemical_formula_moiety              'Ca Ga2 O4'
_chemical_formula_sum                 'Ca Ga2 O4'
_chemical_formula_weight              243.52

_cell_length_a                        10.3442
_cell_length_b                        7.7434
_cell_length_c                        9.1174
_cell_angle_alpha                     90
_cell_angle_beta                      90
_cell_angle_gamma                     90
_cell_formula_units_Z                 8
_cell_volume                          730.30
_symmetry_cell_setting                orthorhombic
_symmetry_space_group_name_H-M        Pna21
_symmetry_Int_Tables_number           33

loop_
_symmetry_equiv_pos_site_id
_symmetry_equiv_pos_as_xyz
1 x,y,z
2 -x,-y,z+1/2
3 -x+1/2,y+1/2,z+1/2
4 x+1/2,-y+1/2,z

loop_
_atom_site_label
_atom_site_type_symbol
_atom_site_fract_x
_atom_site_fract_y
_atom_site_fract_z
_atom_site_B_iso_or_equiv
_atom_site_symmetry_multiplicity
_atom_site_Wyckoff_symbol
_atom_site_occupancy
Ca1 Ca 0.324 0.5108 0.1231 . . . 1.0
Ca2 Ca 0.3878 0.0 0.0774 . . . 1.0
Ga3 Ga 0.1183 0.2135 0.25 . . . 1.0
Ga4 Ga 0.0942 0.8143 0.2497 . . . 1.0
Ga5 Ga 0.3465 0.7601 0.4223 . . . 1.0
Ga6 Ga 0.3719 0.3077 0.4232 . . . 1.0
O7 O 0.298 0.195 0.259 . . . 1.0
O8 O 0.452 0.83 0.274 . . . 1.0
O9 O 0.0927 0.3632 0.102 . . . 1.0
O10 O 0.0345 0.023 0.1892 . . . 1.0
O11 O 0.044 0.263 0.433 . . . 1.0
O12 O 0.1798 0.842 0.42 . . . 1.0
O13 O 0.2062 0.753 0.095 . . . 1.0
O14 O 0.3015 0.53 0.396 . . . 1.0

