data_00-070-0140
# Copyright 2025 International Centre for Diffraction Data. All rights reserved.

_audit_creation_date                  2025-07-06
_audit_creation_method                'Generated by PDF-5+ 2025 4.25.0.2'

_chemical_name_systematic             'Erbium Cobalt Gallium'
_chemical_formula_moiety              'Er ( Co0.667 Ga0.333 )2'
_chemical_formula_sum                 'Co1.334 Er Ga0.666'
_chemical_formula_weight              292.31

_cell_length_a                        5.1854(2)
_cell_length_b                        5.1854(2)
_cell_length_c                        8.4134(7)
_cell_angle_alpha                     90
_cell_angle_beta                      90
_cell_angle_gamma                     120
_cell_formula_units_Z                 4
_cell_volume                          195.91
_symmetry_cell_setting                hexagonal
_symmetry_space_group_name_H-M        P63/mmc
_symmetry_Int_Tables_number           194

loop_
_symmetry_equiv_pos_site_id
_symmetry_equiv_pos_as_xyz
1 x,y,z
2 -x,-y,-z
3 -y,x-y,z
4 y,-x+y,-z
5 -x+y,-x,z
6 x-y,x,-z
7 -y,-x,z
8 y,x,-z
9 x,x-y,z
10 -x,-x+y,-z
11 -x+y,y,z
12 x-y,-y,-z
13 -x,-y,z+1/2
14 x,y,-z+1/2
15 y,-x+y,z+1/2
16 -y,x-y,-z+1/2
17 x-y,x,z+1/2
18 -x+y,-x,-z+1/2
19 y,x,z+1/2
20 -y,-x,-z+1/2
21 -x,-x+y,z+1/2
22 x,x-y,-z+1/2
23 x-y,-y,z+1/2
24 -x+y,y,-z+1/2

loop_
_atom_site_label
_atom_site_type_symbol
_atom_site_fract_x
_atom_site_fract_y
_atom_site_fract_z
_atom_site_U_iso_or_equiv
_atom_site_symmetry_multiplicity
_atom_site_Wyckoff_symbol
_atom_site_occupancy
Er1 Er 0.66667 0.33333 0.0625 0.011 . . 1.0
Co2 Co 0.0 0.0 0.0 0.011 . . 0.45827
Ga3 Ga 0.0 0.0 0.0 0.011 . . 0.54167
Co4 Co 0.172 0.344 0.25 0.009 . . 0.73611
Ga5 Ga 0.172 0.344 0.25 0.009 . . 0.26387

