data_00-067-0413
# Copyright 2025 International Centre for Diffraction Data. All rights reserved.

_audit_creation_date                  2025-07-06
_audit_creation_method                'Generated by PDF-5+ 2025 4.25.0.2'

_chemical_name_systematic             'Iron Sulfide'
_chemical_formula_moiety              'Fe S'
_chemical_formula_sum                 'Fe S'
_chemical_formula_weight              87.91

_cell_length_a                        3.6802(5)
_cell_length_b                        3.6802(5)
_cell_length_c                        5.0307(7)
_cell_angle_alpha                     90.0
_cell_angle_beta                      90.0
_cell_angle_gamma                     90.0
_cell_formula_units_Z                 2
_cell_volume                          68.14
_symmetry_cell_setting                tetragonal
_symmetry_space_group_name_H-M        P4/nmm
_symmetry_Int_Tables_number           129

loop_
_symmetry_equiv_pos_site_id
_symmetry_equiv_pos_as_xyz
1 x,y,z
2 -x,-y,-z
3 -x+1/2,y,z
4 x+1/2,-y,-z
5 x,-y+1/2,z
6 -x,y+1/2,-z
7 -x+1/2,-y+1/2,z
8 x+1/2,y+1/2,-z
9 y,x,z
10 -y,-x,-z
11 -y+1/2,x,z
12 y+1/2,-x,-z
13 y,-x+1/2,z
14 -y,x+1/2,-z
15 -y+1/2,-x+1/2,z
16 y+1/2,x+1/2,-z

loop_
_atom_site_label
_atom_site_type_symbol
_atom_site_fract_x
_atom_site_fract_y
_atom_site_fract_z
_atom_site_U_iso_or_equiv
_atom_site_symmetry_multiplicity
_atom_site_Wyckoff_symbol
_atom_site_occupancy
Fe1 Fe 0.75 0.25 0.0 0.0127 . . 1.0
S2 S 0.25 0.25 0.2523 0.0127 . . 1.0

