data_00-057-0355
# Copyright 2025 International Centre for Diffraction Data. All rights reserved.

_audit_creation_date                  2025-07-04
_audit_creation_method                'Generated by PDF-5+ 2025 4.25.0.2'

_chemical_name_systematic             'Copper Tin Yttrium Sulfide'
_chemical_formula_moiety              'Y3 Cu Sn S7'
_chemical_formula_sum                 'Cu S7 Sn Y3'
_chemical_formula_weight              673.42

# Atomic parameters are cross-referenced from PDF entry 04-012-7693

_cell_length_a                        9.6766(1)
_cell_length_b                        9.6766(1)
_cell_length_c                        6.1717(1)
_cell_angle_alpha                     90
_cell_angle_beta                      90
_cell_angle_gamma                     120
_cell_formula_units_Z                 2
_cell_volume                          500.47
_symmetry_cell_setting                hexagonal
_symmetry_space_group_name_H-M        P63
_symmetry_Int_Tables_number           173

loop_
_symmetry_equiv_pos_site_id
_symmetry_equiv_pos_as_xyz
1 x,y,z
2 -y,x-y,z
3 -x+y,-x,z
4 -x,-y,z+1/2
5 y,-x+y,z+1/2
6 x-y,x,z+1/2

loop_
_atom_site_label
_atom_site_type_symbol
_atom_site_fract_x
_atom_site_fract_y
_atom_site_fract_z
_atom_site_B_iso_or_equiv
_atom_site_symmetry_multiplicity
_atom_site_Wyckoff_symbol
_atom_site_occupancy
Y1 Y 0.3623 0.1552 0.3737 0.63 6 c 1.0
Cu2 Cu 0.0 0.0 0.0 0.83 2 a 1.0
Sn3 Sn 0.33333 0.66666 0.3095 0.2 2 b 1.0
S4 S 0.2617 0.1135 0.9485 0.3 6 c 1.0
S5 S 0.52 0.4351 0.6307 0.5 6 c 1.0
S6 S 0.33333 0.66666 0.692 0.6 2 b 1.0

