data_00-061-0642
# Copyright 2025 International Centre for Diffraction Data. All rights reserved.

_audit_creation_date                  2025-07-04
_audit_creation_method                'Generated by PDF-5+ 2025 4.25.0.2'

_chemical_name_systematic             'Lithium Calcium Samarium Tantalum Oxide'
_chemical_name_common                 'hexalithium calcium disamarium(III) ditantalum(V) dodecaoxide'
_chemical_formula_moiety              'Li6 Ca Sm2 Ta2 O12'
_chemical_formula_sum                 'Ca Li6 O12 Sm2 Ta2'
_chemical_formula_weight              936.33

_cell_length_a                        12.55128(7)
_cell_length_b                        12.55128(7)
_cell_length_c                        12.55128(7)
_cell_angle_alpha                     90.0
_cell_angle_beta                      90.0
_cell_angle_gamma                     90.0
_cell_formula_units_Z                 8
_cell_volume                          1977.26
_symmetry_cell_setting                cubic
_symmetry_space_group_name_H-M        Ia-3d
_symmetry_Int_Tables_number           230

loop_
_symmetry_equiv_pos_site_id
_symmetry_equiv_pos_as_xyz
1 x,y,z
2 -x,-y,-z
3 x+1/2,-y+1/2,-z
4 -x+1/2,y+1/2,z
5 -x,y+1/2,-z+1/2
6 x,-y+1/2,z+1/2
7 -x+1/2,-y,z+1/2
8 x+1/2,y,-z+1/2
9 z,x,y
10 -z,-x,-y
11 z+1/2,-x+1/2,-y
12 -z+1/2,x+1/2,y
13 -z,x+1/2,-y+1/2
14 z,-x+1/2,y+1/2
15 -z+1/2,-x,y+1/2
16 z+1/2,x,-y+1/2
17 y,z,x
18 -y,-z,-x
19 y+1/2,-z+1/2,-x
20 -y+1/2,z+1/2,x
21 -y,z+1/2,-x+1/2
22 y,-z+1/2,x+1/2
23 -y+1/2,-z,x+1/2
24 y+1/2,z,-x+1/2
25 x+1/4,z+1/4,y+1/4
26 -x+3/4,-z+3/4,-y+3/4
27 y+1/4,x+1/4,z+1/4
28 -y+3/4,-x+3/4,-z+3/4
29 z+1/4,y+1/4,x+1/4
30 -z+3/4,-y+3/4,-x+3/4
31 x+3/4,-z+1/4,-y+3/4
32 -x+1/4,z+3/4,y+1/4
33 y+3/4,-x+1/4,-z+3/4
34 -y+1/4,x+3/4,z+1/4
35 z+3/4,-y+1/4,-x+3/4
36 -z+1/4,y+3/4,x+1/4
37 -x+3/4,z+3/4,-y+1/4
38 x+1/4,-z+1/4,y+3/4
39 -y+3/4,x+3/4,-z+1/4
40 y+1/4,-x+1/4,z+3/4
41 -z+3/4,y+3/4,-x+1/4
42 z+1/4,-y+1/4,x+3/4
43 -x+1/4,-z+3/4,y+3/4
44 x+3/4,z+1/4,-y+1/4
45 -y+1/4,-x+3/4,z+3/4
46 y+3/4,x+1/4,-z+1/4
47 -z+1/4,-y+3/4,x+3/4
48 z+3/4,y+1/4,-x+1/4
49 x+1/2,y+1/2,z+1/2
50 -x+1/2,-y+1/2,-z+1/2
51 x,-y,-z+1/2
52 -x,y,z+1/2
53 -x+1/2,y,-z
54 x+1/2,-y,z
55 -x,-y+1/2,z
56 x,y+1/2,-z
57 z+1/2,x+1/2,y+1/2
58 -z+1/2,-x+1/2,-y+1/2
59 z,-x,-y+1/2
60 -z,x,y+1/2
61 -z+1/2,x,-y
62 z+1/2,-x,y
63 -z,-x+1/2,y
64 z,x+1/2,-y
65 y+1/2,z+1/2,x+1/2
66 -y+1/2,-z+1/2,-x+1/2
67 y,-z,-x+1/2
68 -y,z,x+1/2
69 -y+1/2,z,-x
70 y+1/2,-z,x
71 -y,-z+1/2,x
72 y,z+1/2,-x
73 x+3/4,z+3/4,y+3/4
74 -x+1/4,-z+1/4,-y+1/4
75 y+3/4,x+3/4,z+3/4
76 -y+1/4,-x+1/4,-z+1/4
77 z+3/4,y+3/4,x+3/4
78 -z+1/4,-y+1/4,-x+1/4
79 x+1/4,-z+3/4,-y+1/4
80 -x+3/4,z+1/4,y+3/4
81 y+1/4,-x+3/4,-z+1/4
82 -y+3/4,x+1/4,z+3/4
83 z+1/4,-y+3/4,-x+1/4
84 -z+3/4,y+1/4,x+3/4
85 -x+1/4,z+1/4,-y+3/4
86 x+3/4,-z+3/4,y+1/4
87 -y+1/4,x+1/4,-z+3/4
88 y+3/4,-x+3/4,z+1/4
89 -z+1/4,y+1/4,-x+3/4
90 z+3/4,-y+3/4,x+1/4
91 -x+3/4,-z+1/4,y+1/4
92 x+1/4,z+3/4,-y+3/4
93 -y+3/4,-x+1/4,z+1/4
94 y+1/4,x+3/4,-z+3/4
95 -z+3/4,-y+1/4,x+1/4
96 z+1/4,y+3/4,-x+3/4

loop_
_atom_site_label
_atom_site_type_symbol
_atom_site_fract_x
_atom_site_fract_y
_atom_site_fract_z
_atom_site_U_iso_or_equiv
_atom_site_symmetry_multiplicity
_atom_site_Wyckoff_symbol
_atom_site_occupancy
Sm1 Sm 0.0 0.25 0.625 0.0089 . . 0.6666
Ca2 Ca 0.0 0.25 0.625 0.0089 . . 0.3333
Ta3 Ta 0.0 0.0 0.5 0.0071 . . 1.0
Li4 Li 0.125 0.0 0.75 0.0278 . . 0.26
Li5 Li 0.101 0.192 0.412 0.0278 . . 0.44
O6 O 0.0323 0.0521 0.6488 0.0079 . . 1.0

