data_00-064-0860
# Copyright 2025 International Centre for Diffraction Data. All rights reserved.

_audit_creation_date                  2025-07-06
_audit_creation_method                'Generated by PDF-5+ 2025 4.25.0.2'

_chemical_name_systematic             'Calcium Ytterbium Germanium Oxide'
_chemical_formula_moiety              'Ca Yb2 Ge4 O12'
_chemical_formula_sum                 'Ca Ge4 O12 Yb2'
_chemical_formula_weight              868.69

_cell_length_a                        9.92787(7)
_cell_length_b                        9.92787(7)
_cell_length_c                        5.03951(4)
_cell_angle_alpha                     90.0
_cell_angle_beta                      90.0
_cell_angle_gamma                     90.0
_cell_formula_units_Z                 2
_cell_volume                          496.71
_symmetry_cell_setting                tetragonal
_symmetry_space_group_name_H-M        P4/nbm
_symmetry_Int_Tables_number           125

loop_
_symmetry_equiv_pos_site_id
_symmetry_equiv_pos_as_xyz
1 x,y,z
2 -x,-y,-z
3 -x,y+1/2,z
4 x,-y+1/2,-z
5 x+1/2,-y,z
6 -x+1/2,y,-z
7 -x+1/2,-y+1/2,z
8 x+1/2,y+1/2,-z
9 y,x,-z
10 -y,-x,z
11 -y,x+1/2,-z
12 y,-x+1/2,z
13 y+1/2,-x,-z
14 -y+1/2,x,z
15 -y+1/2,-x+1/2,-z
16 y+1/2,x+1/2,z

loop_
_atom_site_label
_atom_site_type_symbol
_atom_site_fract_x
_atom_site_fract_y
_atom_site_fract_z
_atom_site_U_iso_or_equiv
_atom_site_symmetry_multiplicity
_atom_site_Wyckoff_symbol
_atom_site_occupancy
Ca1 Ca 0.0 0.0 0.5 0.03017 . . 0.5
Yb2 Yb 0.0 0.0 0.5 0.03017 . . 0.5
Yb3 Yb 0.25 0.25 0.5 0.02507 . . 1.0
Ge4 Ge 0.52012 0.25 0.0 0.02497 . . 1.0
O5 O 0.6258 0.3742 0.1571 0.02047 . . 1.0
O6 O 0.1733 0.0642 0.2575 0.01907 . . 1.0

loop_
_atom_site_aniso_label
_atom_site_aniso_U_11
_atom_site_aniso_U_12
_atom_site_aniso_U_13
_atom_site_aniso_U_22
_atom_site_aniso_U_23
_atom_site_aniso_U_33
Ca1 0.0305 -0.0062 -0.0038 0.0305 0.0038 0.0295
Yb2 0.0305 -0.0062 -0.0038 0.0305 0.0038 0.0295
Yb3 0.0251 0.0 0.0 0.0251 0.0 0.025
Ge4 0.0276 0.0 0.0 0.0223 -0.008 0.025
O5 0.0227 0.005 -0.0079 0.0227 0.0079 0.016
O6 0.025 -0.003 0.003 0.014 0.0039 0.0182

