data_00-057-0840
# Copyright 2025 International Centre for Diffraction Data. All rights reserved.

_audit_creation_date                  2025-07-04
_audit_creation_method                'Generated by PDF-5+ 2025 4.25.0.2'

_chemical_name_systematic             'Sodium Ytterbium Molybdenum Oxide Phosphate'
_chemical_formula_moiety              'Na2 Yb ( P O4 ) ( Mo O4 )'
_chemical_formula_sum                 'Mo Na2 O8 P Yb'
_chemical_formula_weight              473.96
_chemical_melting_point               1073.0

# Atomic parameters are cross-referenced from PDF entry 04-013-6868

_cell_length_a                        18.0086(1)
_cell_length_b                        12.0266(1)
_cell_length_c                        6.7742(1)
_cell_angle_alpha                     90
_cell_angle_beta                      90
_cell_angle_gamma                     90
_cell_formula_units_Z                 8
_cell_volume                          1467.17
_symmetry_cell_setting                orthorhombic
_symmetry_space_group_name_H-M        Ibca
_symmetry_Int_Tables_number           73

loop_
_symmetry_equiv_pos_site_id
_symmetry_equiv_pos_as_xyz
1 x,y,z
2 -x,-y,-z
3 -x+1/2,-y,z+1/2
4 x+1/2,y,-z+1/2
5 -x,y+1/2,-z+1/2
6 x,-y+1/2,z+1/2
7 x+1/2,-y+1/2,-z
8 -x+1/2,y+1/2,z
9 x+1/2,y+1/2,z+1/2
10 -x+1/2,-y+1/2,-z+1/2
11 -x,-y+1/2,z
12 x,y+1/2,-z
13 -x+1/2,y,-z
14 x+1/2,-y,z
15 x,-y,-z+1/2
16 -x,y,z+1/2

loop_
_atom_site_label
_atom_site_type_symbol
_atom_site_fract_x
_atom_site_fract_y
_atom_site_fract_z
_atom_site_B_iso_or_equiv
_atom_site_symmetry_multiplicity
_atom_site_Wyckoff_symbol
_atom_site_occupancy
Na1 Na 0.5965 0.1837 0.2591 2.61 16 f 1.0
Yb2 Yb 0.75 0.07183 0.0 2.54 8 d 1.0
Mo3 Mo 0.42708 0.0 0.25 1.11 8 c 1.0
P4 P 0.25 0.18 0.0 0.62 8 d 1.0
O5 O 0.3833 0.0223 0.4568 3.3 16 f 1.0
O6 O 0.4787 0.118 0.2165 2.5 16 f 1.0
O7 O 0.1828 0.2509 -0.0244 0.11 16 f 1.0
O8 O 0.2409 0.1025 0.1788 0.11 16 f 1.0

