data_00-071-0482
# Copyright 2025 International Centre for Diffraction Data. All rights reserved.

_audit_creation_date                  2025-07-06
_audit_creation_method                'Generated by PDF-5+ 2025 4.25.0.2'

_chemical_name_systematic             'Barium Titanium Oxide'
_chemical_name_common                 'barium titanate'
_chemical_formula_moiety              'Ba Ti O3'
_chemical_formula_sum                 'Ba O3 Ti'
_chemical_formula_weight              233.19

_cell_length_a                        3.9946(6)
_cell_length_b                        3.9946(6)
_cell_length_c                        4.0338(1)
_cell_angle_alpha                     90.00000
_cell_angle_beta                      90.00000
_cell_angle_gamma                     90.00000
_cell_formula_units_Z                 1
_cell_volume                          64.37
_symmetry_cell_setting                tetragonal
_symmetry_space_group_name_H-M        P4mm
_symmetry_Int_Tables_number           99

loop_
_symmetry_equiv_pos_site_id
_symmetry_equiv_pos_as_xyz
1 x,y,z
2 -x,-y,z
3 -x,y,z
4 x,-y,z
5 y,x,z
6 -y,-x,z
7 -y,x,z
8 y,-x,z

loop_
_atom_site_label
_atom_site_type_symbol
_atom_site_fract_x
_atom_site_fract_y
_atom_site_fract_z
_atom_site_U_iso_or_equiv
_atom_site_symmetry_multiplicity
_atom_site_Wyckoff_symbol
_atom_site_occupancy
Ba1 Ba 0.0 0.0 0.0 0.0045 . . 1.0
Ti2 Ti 0.5 0.5 0.488 0.0022 . . 1.0
O3 O 0.5 0.5 -0.01 0.00424 . . 1.0
O4 O 0.5 0.0 0.529 0.00424 . . 1.0

