data_00-064-0074
# Copyright 2025 International Centre for Diffraction Data. All rights reserved.

_audit_creation_date                  2025-07-06
_audit_creation_method                'Generated by PDF-5+ 2025 4.25.0.2'

_chemical_name_systematic             'Bismuth Samarium Iron Oxide'
_chemical_formula_moiety              'Bi0.9 Sm0.1 Fe O3'
_chemical_formula_sum                 'Bi0.9 Fe O3 Sm0.1'
_chemical_formula_weight              306.96

_cell_length_a                        5.5644(3)
_cell_length_b                        5.6446(3)
_cell_length_c                        7.9305(4)
_cell_angle_alpha                     90.0
_cell_angle_beta                      90.0
_cell_angle_gamma                     90.0
_cell_formula_units_Z                 4
_cell_volume                          246.66
_symmetry_cell_setting                orthorhombic
_symmetry_space_group_name_H-M        Pbnm
_symmetry_Int_Tables_number           62

loop_
_symmetry_equiv_pos_site_id
_symmetry_equiv_pos_as_xyz
1 x,y,z
2 -x,-y,-z
3 -x+1/2,y+1/2,-z+1/2
4 x+1/2,-y+1/2,z+1/2
5 -x,-y,z+1/2
6 x,y,-z+1/2
7 x+1/2,-y+1/2,-z
8 -x+1/2,y+1/2,z

loop_
_atom_site_label
_atom_site_type_symbol
_atom_site_fract_x
_atom_site_fract_y
_atom_site_fract_z
_atom_site_U_iso_or_equiv
_atom_site_symmetry_multiplicity
_atom_site_Wyckoff_symbol
_atom_site_occupancy
Bi1 Bi 0.4977 0.035 0.25 . . . 0.9
Sm2 Sm 0.4977 0.035 0.25 . . . 0.1
Fe3 Fe 0.0 0.0 0.0 . . . 1.0
O4 O 0.5794 0.487 0.25 . . . 1.0
O5 O 0.2083 0.294 0.0395 . . . 1.0

