data_00-058-0238
# Copyright 2025 International Centre for Diffraction Data. All rights reserved.

_audit_creation_date                  2025-07-04
_audit_creation_method                'Generated by PDF-5+ 2025 4.25.0.2'

_chemical_name_systematic             'Lead Lutetium Sulfide'
_chemical_formula_moiety              'Pb Lu2 S4'
_chemical_formula_sum                 'Lu2 Pb S4'
_chemical_formula_weight              685.38

# Atomic parameters are cross-referenced from PDF entry 04-016-5689

_cell_length_a                        11.919(2)
_cell_length_b                        3.8890(8)
_cell_length_c                        14.103(3)
_cell_angle_alpha                     90
_cell_angle_beta                      90
_cell_angle_gamma                     90
_cell_formula_units_Z                 4
_cell_volume                          653.72
_symmetry_cell_setting                orthorhombic
_symmetry_space_group_name_H-M        Pnma
_symmetry_Int_Tables_number           62

loop_
_symmetry_equiv_pos_site_id
_symmetry_equiv_pos_as_xyz
1 x,y,z
2 -x,-y,-z
3 x+1/2,-y+1/2,-z+1/2
4 -x+1/2,y+1/2,z+1/2
5 -x,y+1/2,-z
6 x,-y+1/2,z
7 -x+1/2,-y,z+1/2
8 x+1/2,y,-z+1/2

loop_
_atom_site_label
_atom_site_type_symbol
_atom_site_fract_x
_atom_site_fract_y
_atom_site_fract_z
_atom_site_U_iso_or_equiv
_atom_site_symmetry_multiplicity
_atom_site_Wyckoff_symbol
_atom_site_occupancy
Lu1 Lu 0.43766 0.25 0.38874 0.00977 4 c 1.0
Lu2 Lu 0.41643 0.25 0.90165 0.00887 4 c 1.0
Pb3 Pb 0.7749 0.25 0.3387 0.02227 4 c 0.5
Pb4 Pb 0.7419 0.25 0.3298 0.02077 4 c 0.5
S5 S 0.205 0.25 0.8337 0.00967 4 c 1.0
S6 S 0.1258 0.25 0.5289 0.00867 4 c 1.0
S7 S 0.5276 0.25 0.2156 0.01333 4 c 1.0
S8 S 0.4115 0.25 0.5755 0.00967 4 c 1.0

loop_
_atom_site_aniso_label
_atom_site_aniso_U_11
_atom_site_aniso_U_12
_atom_site_aniso_U_13
_atom_site_aniso_U_22
_atom_site_aniso_U_23
_atom_site_aniso_U_33
Lu1 0.0078 0.0 -0.0014 0.0122 0.0 0.0093
Lu2 0.0054 0.0 -5.0E-4 0.012 0.0 0.0092
Pb3 0.022 0.0 0.0 0.0258 0.0 0.019
Pb4 0.016 0.0 0.001 0.0263 0.0 0.02
S5 0.002 0.0 0.0 0.013 0.0 0.014
S6 0.006 0.0 0.0 0.012 0.0 0.008
S7 0.015 0.0 0.005 0.018 0.0 0.007
S8 0.004 0.0 0.0 0.014 0.0 0.011

