data_00-061-0254
# Copyright 2025 International Centre for Diffraction Data. All rights reserved.

_audit_creation_date                  2025-07-04
_audit_creation_method                'Generated by PDF-5+ 2025 4.25.0.2'

_chemical_name_systematic             'Potassium Aluminum Titanium Phosphate'
_chemical_formula_moiety              'K2 Al Ti ( P O4 )3'
_chemical_formula_sum                 'Al K2 O12 P3 Ti'
_chemical_formula_weight              437.96

_cell_length_a                        9.76410(10)
_cell_length_b                        9.76410(10)
_cell_length_c                        9.76410(10)
_cell_angle_alpha                     90.0
_cell_angle_beta                      90.0
_cell_angle_gamma                     90.0
_cell_formula_units_Z                 4
_cell_volume                          930.89
_symmetry_cell_setting                cubic
_symmetry_space_group_name_H-M        P213
_symmetry_Int_Tables_number           198

loop_
_symmetry_equiv_pos_site_id
_symmetry_equiv_pos_as_xyz
1 x,y,z
2 z,x,y
3 y,z,x
4 x+1/2,-y+1/2,-z
5 z+1/2,-x+1/2,-y
6 y+1/2,-z+1/2,-x
7 -x,y+1/2,-z+1/2
8 -z,x+1/2,-y+1/2
9 -y,z+1/2,-x+1/2
10 -x+1/2,-y,z+1/2
11 -z+1/2,-x,y+1/2
12 -y+1/2,-z,x+1/2

loop_
_atom_site_label
_atom_site_type_symbol
_atom_site_fract_x
_atom_site_fract_y
_atom_site_fract_z
_atom_site_U_iso_or_equiv
_atom_site_symmetry_multiplicity
_atom_site_Wyckoff_symbol
_atom_site_occupancy
K1 K 0.81959 0.18041 0.68041 0.0319 4 a 1.0
K2 K 0.96065 0.46065 0.03935 0.0283 4 a 1.0
Ti3 Ti 0.89043 0.60957 0.39043 0.0031 4 a 0.566
Al4 Al 0.89043 0.60957 0.39043 0.0031 4 a 0.434
Ti5 Ti 0.66347 0.16347 0.33653 0.0025 4 a 0.434
Al6 Al 0.66347 0.16347 0.33653 0.0025 4 a 0.566
P7 P 0.97681 0.2942 0.37669 0.0073 12 b 1.0
O8 O 0.8286 0.2495 0.3967 0.0123 12 b 1.0
O9 O 0.8296 0.5163 0.5554 0.0122 12 b 1.0
O10 O 1.0552 0.273 0.5106 0.0142 12 b 1.0
O11 O 1.0489 0.205 0.2686 0.0128 12 b 1.0

