data_00-058-0687
# Copyright 2025 International Centre for Diffraction Data. All rights reserved.

_audit_creation_date                  2025-07-04
_audit_creation_method                'Generated by PDF-5+ 2025 4.25.0.2'

_chemical_name_systematic             'Sodium Lutetium Tungstate Phosphate'
_chemical_formula_moiety              'Na2 Lu ( W O4 ) ( P O4 )'
_chemical_formula_sum                 'Lu Na2 O8 P W'
_chemical_formula_weight              563.75
_chemical_melting_point               973.0

# Atomic parameters are cross-referenced from PDF entry 04-018-8832

_cell_length_a                        18.008(4)
_cell_length_b                        11.988(2)
_cell_length_c                        6.7329(13)
_cell_angle_alpha                     90
_cell_angle_beta                      90
_cell_angle_gamma                     90
_cell_formula_units_Z                 8
_cell_volume                          1453.50
_symmetry_cell_setting                orthorhombic
_symmetry_space_group_name_H-M        Ibca
_symmetry_Int_Tables_number           73

loop_
_symmetry_equiv_pos_site_id
_symmetry_equiv_pos_as_xyz
1 x,y,z
2 -x,-y,-z
3 -x+1/2,-y,z+1/2
4 x+1/2,y,-z+1/2
5 -x,y+1/2,-z+1/2
6 x,-y+1/2,z+1/2
7 x+1/2,-y+1/2,-z
8 -x+1/2,y+1/2,z
9 x+1/2,y+1/2,z+1/2
10 -x+1/2,-y+1/2,-z+1/2
11 -x,-y+1/2,z
12 x,y+1/2,-z
13 -x+1/2,y,-z
14 x+1/2,-y,z
15 x,-y,-z+1/2
16 -x,y,z+1/2

loop_
_atom_site_label
_atom_site_type_symbol
_atom_site_fract_x
_atom_site_fract_y
_atom_site_fract_z
_atom_site_U_iso_or_equiv
_atom_site_symmetry_multiplicity
_atom_site_Wyckoff_symbol
_atom_site_occupancy
Na1 Na 0.5971 0.1856 -0.2614 0.049 16 f 1.0
W2 W 0.42627 0.0 0.75 0.0266 8 c 1.0
Lu3 Lu 0.75 0.07176 0.0 0.01963 8 d 1.0
P4 P 0.25 0.1799 0.0 0.022 8 d 1.0
O5 O 0.1814 0.256 0.019 0.018 16 f 1.0
O6 O 0.2432 0.1 -0.1756 0.01867 16 f 1.0
O7 O 0.37 -0.0253 0.9621 0.02533 16 f 1.0
O8 O 0.4802 -0.1182 0.707 0.04933 16 f 1.0

loop_
_atom_site_aniso_label
_atom_site_aniso_U_11
_atom_site_aniso_U_12
_atom_site_aniso_U_13
_atom_site_aniso_U_22
_atom_site_aniso_U_23
_atom_site_aniso_U_33
Na1 0.043 -0.02 0.007 0.059 0.001 0.045
W2 0.0317 0.0 0.0 0.0222 0.0015 0.0259
Lu3 0.0349 0.0 -1.0E-4 0.0113 0.0 0.0127
P4 0.041 0.0 -0.001 0.013 0.0 0.012
O5 0.036 -0.003 -0.005 0.014 0.001 0.004
O6 0.023 0.004 -0.001 0.011 0.007 0.022
O7 0.016 0.011 -0.007 0.032 0.005 0.028
O8 0.04 0.028 -0.004 0.056 0.005 0.052

