data_00-057-0444
# Copyright 2025 International Centre for Diffraction Data. All rights reserved.

_audit_creation_date                  2025-07-04
_audit_creation_method                'Generated by PDF-5+ 2025 4.25.0.2'

_chemical_name_systematic             'Silver Gallium Selenide Sulfide'
_chemical_formula_moiety              'Ag Ga S Se'
_chemical_formula_sum                 'Ag Ga S Se'
_chemical_formula_weight              288.61

# Atomic parameters are cross-referenced from PDF entry 04-005-3489

_cell_length_a                        5.87
_cell_length_b                        5.87
_cell_length_c                        10.6
_cell_angle_alpha                     90
_cell_angle_beta                      90
_cell_angle_gamma                     90
_cell_formula_units_Z                 4
_cell_volume                          365.24
_symmetry_cell_setting                tetragonal
_symmetry_space_group_name_H-M        I-42d
_symmetry_Int_Tables_number           122

loop_
_symmetry_equiv_pos_site_id
_symmetry_equiv_pos_as_xyz
1 x,y,z
2 -x+1/2,y,-z+3/4
3 -x,-y,z
4 x+1/2,-y,-z+3/4
5 -y,x,-z
6 y+1/2,x,z+3/4
7 y,-x,-z
8 -y+1/2,-x,z+3/4
9 x+1/2,y+1/2,z+1/2
10 -x,y+1/2,-z+1/4
11 -x+1/2,-y+1/2,z+1/2
12 x,-y+1/2,-z+1/4
13 -y+1/2,x+1/2,-z+1/2
14 y,x+1/2,z+1/4
15 y+1/2,-x+1/2,-z+1/2
16 -y,-x+1/2,z+1/4

loop_
_atom_site_label
_atom_site_type_symbol
_atom_site_fract_x
_atom_site_fract_y
_atom_site_fract_z
_atom_site_U_iso_or_equiv
_atom_site_symmetry_multiplicity
_atom_site_Wyckoff_symbol
_atom_site_occupancy
Se1 Se 0.2426 0.25 0.125 . 8 d 0.5
Ga2 Ga 0.0 0.0 0.0 . 4 a 1.0
Ag3 Ag 0.0 0.0 0.5 . 4 b 1.0
S4 S 0.2426 0.25 0.125 . 8 d 0.5

