data_00-064-0530
# Copyright 2025 International Centre for Diffraction Data. All rights reserved.

_audit_creation_date                  2025-07-06
_audit_creation_method                'Generated by PDF-5+ 2025 4.25.0.2'

_chemical_name_systematic             'Calcium Lutetium Silicate'
_chemical_formula_moiety              'Ca3 Lu2 Si3 O12'
_chemical_formula_sum                 'Ca3 Lu2 O12 Si3'
_chemical_formula_weight              746.41

_cell_length_a                        6.54037(6)
_cell_length_b                        15.4916(2)
_cell_length_c                        9.99034(10)
_cell_angle_alpha                     90.0
_cell_angle_beta                      90.0
_cell_angle_gamma                     90.0
_cell_formula_units_Z                 4
_cell_volume                          1012.23
_symmetry_cell_setting                orthorhombic
_symmetry_space_group_name_H-M        Pnma
_symmetry_Int_Tables_number           62

loop_
_symmetry_equiv_pos_site_id
_symmetry_equiv_pos_as_xyz
1 x,y,z
2 -x,-y,-z
3 x+1/2,-y+1/2,-z+1/2
4 -x+1/2,y+1/2,z+1/2
5 -x,y+1/2,-z
6 x,-y+1/2,z
7 -x+1/2,-y,z+1/2
8 x+1/2,y,-z+1/2

loop_
_atom_site_label
_atom_site_type_symbol
_atom_site_fract_x
_atom_site_fract_y
_atom_site_fract_z
_atom_site_U_iso_or_equiv
_atom_site_symmetry_multiplicity
_atom_site_Wyckoff_symbol
_atom_site_occupancy
Lu1 Lu 0.3721 0.09454 0.071 0.0168 . . 0.565
Ca2 Ca 0.3721 0.09454 0.071 0.0168 . . 0.435
Lu3 Lu 0.1743 0.60919 0.16547 0.01561 . . 0.39
Ca4 Ca 0.1743 0.60919 0.16547 0.01561 . . 0.61
Lu5 Lu 0.035 0.25 0.1756 0.01514 . . 0.09
Ca6 Ca 0.35 0.25 0.1756 0.01514 . . 0.91
Si7 Si 0.3498 0.0685 0.3678 0.01194 . . 1.0
Si8 Si 0.0291 0.025 0.5738 0.01024 . . 1.0
O9 O 0.035 0.1112 0.0443 0.02103 . . 1.0
O10 O 0.552 0.6627 0.3563 0.02015 . . 1.0
O11 O 0.177 0.0362 0.4778 0.01749 . . 1.0
O12 O 0.249 0.1482 0.2796 0.02061 . . 1.0
O13 O 0.422 0.511 0.2733 0.02103 . . 1.0
O14 O 0.2761 0.025 0.584 0.01752 . . 1.0
O15 O 0.438 0.25 0.0769 0.01684 . . 1.0

