data_00-057-0445
# Copyright 2025 International Centre for Diffraction Data. All rights reserved.

_audit_creation_date                  2025-07-04
_audit_creation_method                'Generated by PDF-5+ 2025 4.25.0.2'

_chemical_name_systematic             'Copper Lead Holmium Selenide'
_chemical_formula_moiety              'Ho Cu Pb Se3'
_chemical_formula_sum                 'Cu Ho Pb Se3'
_chemical_formula_weight              672.55

# Atomic parameters are cross-referenced from PDF entry 04-012-7649

_cell_length_a                        10.528(1)
_cell_length_b                        4.0516(5)
_cell_length_c                        13.420(2)
_cell_angle_alpha                     90
_cell_angle_beta                      90
_cell_angle_gamma                     90
_cell_formula_units_Z                 4
_cell_volume                          572.43
_symmetry_cell_setting                orthorhombic
_symmetry_space_group_name_H-M        Pnma
_symmetry_Int_Tables_number           62

loop_
_symmetry_equiv_pos_site_id
_symmetry_equiv_pos_as_xyz
1 x,y,z
2 -x,-y,-z
3 x+1/2,-y+1/2,-z+1/2
4 -x+1/2,y+1/2,z+1/2
5 -x,y+1/2,-z
6 x,-y+1/2,z
7 -x+1/2,-y,z+1/2
8 x+1/2,y,-z+1/2

loop_
_atom_site_label
_atom_site_type_symbol
_atom_site_fract_x
_atom_site_fract_y
_atom_site_fract_z
_atom_site_B_iso_or_equiv
_atom_site_symmetry_multiplicity
_atom_site_Wyckoff_symbol
_atom_site_occupancy
Ho1 Ho 0.507 0.25 0.256 0.5 4 c 1.0
Cu2 Cu 0.752 0.25 0.787 0.5 4 c 1.0
Pb3 Pb 0.7738 0.25 0.5009 0.5 4 c 1.0
Se4 Se 0.248 0.25 0.325 0.5 4 c 1.0
Se5 Se 0.432 0.25 0.602 0.5 4 c 1.0
Se6 Se 0.057 0.25 0.617 0.5 4 c 1.0

