data_00-046-0410
# Copyright 2025 International Centre for Diffraction Data. All rights reserved.

_audit_creation_date                  2025-07-04
_audit_creation_method                'Generated by PDF-5+ 2025 4.25.0.2'

_chemical_name_systematic             'Calcium Lanthanum Vanadium Oxide'
_chemical_formula_moiety              'Ca9 La ( V O4 )7'
_chemical_formula_sum                 'Ca9 La O28 V7'
_chemical_formula_weight              1304.17
_chemical_melting_point               1773.0

# Atomic parameters are cross-referenced from PDF entry 04-005-5974

_cell_length_a                        10.9
_cell_length_b                        10.9
_cell_length_c                        38.14
_cell_angle_alpha                     90
_cell_angle_beta                      90
_cell_angle_gamma                     120
_cell_formula_units_Z                 6
_cell_volume                          3924.32
_symmetry_cell_setting                hexagonal
_symmetry_space_group_name_H-M        R3c
_symmetry_Int_Tables_number           161

loop_
_symmetry_equiv_pos_site_id
_symmetry_equiv_pos_as_xyz
1 x,y,z
2 -y,x-y,z
3 -x+y,-x,z
4 -y,-x,z+1/2
5 x,x-y,z+1/2
6 -x+y,y,z+1/2
7 x+2/3,y+1/3,z+1/3
8 -y+2/3,x-y+1/3,z+1/3
9 -x+y+2/3,-x+1/3,z+1/3
10 -y+2/3,-x+1/3,z+5/6
11 x+2/3,x-y+1/3,z+5/6
12 -x+y+2/3,y+1/3,z+5/6
13 x+1/3,y+2/3,z+2/3
14 -y+1/3,x-y+2/3,z+2/3
15 -x+y+1/3,-x+2/3,z+2/3
16 -y+1/3,-x+2/3,z+1/6
17 x+1/3,x-y+2/3,z+1/6
18 -x+y+1/3,y+2/3,z+1/6

loop_
_atom_site_label
_atom_site_type_symbol
_atom_site_fract_x
_atom_site_fract_y
_atom_site_fract_z
_atom_site_U_iso_or_equiv
_atom_site_symmetry_multiplicity
_atom_site_Wyckoff_symbol
_atom_site_occupancy
O1 O 0.00267 0.27933 0.10903 . 18 b 1.0
O2 O 0.07633 0.42467 0.01937 . 18 b 1.0
O3 O 0.094 0.176 0.2684 . 18 b 1.0
O4 O 0.133 0.15 0.4867 . 18 b 1.0
Ca5 Ca 0.148 0.275 0.0558 . 18 b 1.0
Ca6 Ca 0.148 0.281 0.1624 . 18 b 1.0
O7 O 0.17567 0.08133 0.19723 . 18 b 1.0
O8 O 0.24467 0.21833 0.11443 . 18 b 1.0
Ca9 Ca 0.28867 0.13133 0.29513 . 18 b 1.0
O10 O 0.28867 0.14233 0.05433 . 18 b 1.0
V11 V 0.32267 0.13933 0.09483 . 18 b 1.0
V12 V 0.35067 0.16433 0.19913 . 18 b 1.0
O13 O 0.38867 0.05033 0.17683 . 18 b 1.0
O14 O 0.39567 0.14933 0.23733 . 18 b 1.0
V15 V 0.0 0.0 0.0 . 6 a 1.0
O16 O 0.0 0.0 0.0435 . 6 a 1.0
La17 La 0.0 0.0 0.2287 . 6 a 1.0

