data_00-055-0805
# Copyright 2025 International Centre for Diffraction Data. All rights reserved.

_audit_creation_date                  2025-07-04
_audit_creation_method                'Generated by PDF-5+ 2025 4.25.0.2'

_chemical_name_systematic             'Strontium Zinc Phosphate'
_chemical_formula_moiety              'Sr Zn P2 O7'
_chemical_formula_sum                 'O7 P2 Sr Zn'
_chemical_formula_weight              326.94

# Atomic parameters are cross-referenced from PDF entry 04-009-0529

_cell_length_a                        5.299
_cell_length_b                        8.198
_cell_length_c                        13.7796
_cell_angle_alpha                     90
_cell_angle_beta                      112.616
_cell_angle_gamma                     90
_cell_formula_units_Z                 4
_cell_volume                          552.57
_symmetry_cell_setting                monoclinic
_symmetry_space_group_name_H-M        P21/c
_symmetry_Int_Tables_number           14

loop_
_symmetry_equiv_pos_site_id
_symmetry_equiv_pos_as_xyz
1 x,y,z
2 -x,-y,-z
3 -x,y+1/2,-z+1/2
4 x,-y+1/2,z+1/2

loop_
_atom_site_label
_atom_site_type_symbol
_atom_site_fract_x
_atom_site_fract_y
_atom_site_fract_z
_atom_site_U_iso_or_equiv
_atom_site_symmetry_multiplicity
_atom_site_Wyckoff_symbol
_atom_site_occupancy
Sr1 Sr 0.01495 0.31962 0.22291 . 4 e 1.0
O2 O 0.0935 0.1759 0.395 . 4 e 1.0
O3 O 0.1541 0.0493 0.1936 . 4 e 1.0
O4 O 0.2816 0.3999 0.1049 . 4 e 1.0
Zn5 Zn 0.3159 0.6358 0.1168 . 4 e 1.0
O6 O 0.3283 0.1036 0.0368 . 4 e 1.0
P7 P 0.336 0.3093 0.0087 . 4 e 1.0
P8 P 0.4072 0.027 0.1582 . 4 e 1.0
O9 O 0.5014 0.3375 0.3474 . 4 e 1.0
O10 O 0.6412 0.3487 0.0161 . 4 e 1.0
O11 O 0.674 0.1203 0.2378 . 4 e 1.0

