data_00-059-0270
# Copyright 2025 International Centre for Diffraction Data. All rights reserved.

_audit_creation_date                  2025-07-04
_audit_creation_method                'Generated by PDF-5+ 2025 4.25.0.2'

_chemical_name_systematic             'Antimony Gadolinium Scandium'
_chemical_formula_moiety              'Gd3 Sb3 Sc2'
_chemical_formula_sum                 'Gd3 Sb3 Sc2'
_chemical_formula_weight              926.94

_cell_length_a                        11.6425(5)
_cell_length_b                        9.0338(4)
_cell_length_c                        7.8951(4)
_cell_angle_alpha                     90.0
_cell_angle_beta                      90.0
_cell_angle_gamma                     90.0
_cell_formula_units_Z                 4
_cell_volume                          830.38
_symmetry_cell_setting                orthorhombic
_symmetry_space_group_name_H-M        Pnma
_symmetry_Int_Tables_number           62

loop_
_symmetry_equiv_pos_site_id
_symmetry_equiv_pos_as_xyz
1 x,y,z
2 -x,-y,-z
3 x+1/2,-y+1/2,-z+1/2
4 -x+1/2,y+1/2,z+1/2
5 -x,y+1/2,-z
6 x,-y+1/2,z
7 -x+1/2,-y,z+1/2
8 x+1/2,y,-z+1/2

loop_
_atom_site_label
_atom_site_type_symbol
_atom_site_fract_x
_atom_site_fract_y
_atom_site_fract_z
_atom_site_U_iso_or_equiv
_atom_site_symmetry_multiplicity
_atom_site_Wyckoff_symbol
_atom_site_occupancy
Gd1 Gd 0.2265 0.25 0.8227 . 4 c 1.0
Gd2 Gd 0.2874 0.25 0.3366 . 4 c 1.0
Sc3 Sc 0.007 0.25 0.516 . 4 c 0.8
Gd4 Gd 0.007 0.25 0.516 . 4 c 0.2
Sc5 Sc 0.0656 0.0547 0.1956 . 8 d 0.6
Gd6 Gd 0.0656 0.0547 0.1956 . 8 d 0.4
Sb7 Sb 0.4756 0.25 0.5941 . 4 c 1.0
Sb8 Sb 0.3339 0.007 0.0646 . 8 d 1.0

