data_00-067-0309
# Copyright 2025 International Centre for Diffraction Data. All rights reserved.

_audit_creation_date                  2025-07-06
_audit_creation_method                'Generated by PDF-5+ 2025 4.25.0.2'

_chemical_name_systematic             'Barium Calcium Zinc Aluminum Gallium Oxide'
_chemical_formula_moiety              'Ca Ba Zn2 Al Ga O7'
_chemical_formula_sum                 'Al Ba Ca Ga O7 Zn2'
_chemical_formula_weight              516.86

_cell_length_a                        6.32539(6)
_cell_length_b                        6.32539(6)
_cell_length_c                        10.1208(1)
_cell_angle_alpha                     90.0
_cell_angle_beta                      90.0
_cell_angle_gamma                     120.0
_cell_formula_units_Z                 2
_cell_volume                          350.69
_symmetry_cell_setting                hexagonal
_symmetry_space_group_name_H-M        P63mc
_symmetry_Int_Tables_number           186

loop_
_symmetry_equiv_pos_site_id
_symmetry_equiv_pos_as_xyz
1 x,y,z
2 -y,x-y,z
3 -x+y,-x,z
4 -y,-x,z
5 x,x-y,z
6 -x+y,y,z
7 -x,-y,z+1/2
8 y,-x+y,z+1/2
9 x-y,x,z+1/2
10 y,x,z+1/2
11 -x,-x+y,z+1/2
12 x-y,-y,z+1/2

loop_
_atom_site_label
_atom_site_type_symbol
_atom_site_fract_x
_atom_site_fract_y
_atom_site_fract_z
_atom_site_B_iso_or_equiv
_atom_site_symmetry_multiplicity
_atom_site_Wyckoff_symbol
_atom_site_occupancy
Ca1 Ca 0.6666667 0.3333333 0.87093 0.494 . . 1.0
Ba2 Ba 0.6666667 0.3333333 0.5 1.587 . . 1.0
Al3 Al 0.0 0.0 0.43842 0.644 . . 0.4869
Zn4 Zn 0.0 0.0 0.43842 0.644 . . 0.5131
Zn5 Zn 0.17202 0.82798 0.68216 0.72 . . 0.829
Al6 Al 0.17202 0.82798 0.68216 0.72 . . 0.171
O7 O 0.50715 0.49285 0.73676 2.02 . . 1.0
O8 O 0.0 0.0 0.2626 2.72 . . 1.0
O9 O 0.15453 0.84547 0.48979 2.34 . . 1.0

