data_00-055-0638
# Copyright 2025 International Centre for Diffraction Data. All rights reserved.

_audit_creation_date                  2025-07-04
_audit_creation_method                'Generated by PDF-5+ 2025 4.25.0.2'

_chemical_name_systematic             'Sodium Manganese Silicate'
_chemical_formula_moiety              'Na2 Mn Si O4'
_chemical_formula_sum                 'Mn Na2 O4 Si'
_chemical_formula_weight              193.00

# Atomic parameters are cross-referenced from PDF entry 04-020-3121

_cell_length_a                        7.0395(8)
_cell_length_b                        5.5816(6)
_cell_length_c                        5.3305(5)
_cell_angle_alpha                     90
_cell_angle_beta                      89.82(3)
_cell_angle_gamma                     90
_cell_formula_units_Z                 2
_cell_volume                          209.44
_symmetry_cell_setting                monoclinic
_symmetry_space_group_name_H-M        Pn
_symmetry_Int_Tables_number           7

loop_
_symmetry_equiv_pos_site_id
_symmetry_equiv_pos_as_xyz
1 x,y,z
2 x+1/2,-y,z+1/2

loop_
_atom_site_label
_atom_site_type_symbol
_atom_site_fract_x
_atom_site_fract_y
_atom_site_fract_z
_atom_site_U_iso_or_equiv
_atom_site_symmetry_multiplicity
_atom_site_Wyckoff_symbol
_atom_site_occupancy
Mn1 Mn 0.00686 0.18164 0.00361 . 2 a 1.0
Si2 Si 0.25315 0.68307 0.00871 . 2 a 1.0
Na3 Na 0.75497 0.66966 -0.00627 . 2 a 1.0
Na4 Na 0.49965 0.18076 -0.00271 . 2 a 1.0
O5 O 0.73263 0.60055 0.42587 . 2 a 1.0
O6 O 0.55872 0.16843 0.42251 . 2 a 1.0
O7 O 0.94892 0.20455 0.37843 . 2 a 1.0
O8 O 0.2741 0.7026 0.31786 . 2 a 1.0

