data_00-061-0079
# Copyright 2025 International Centre for Diffraction Data. All rights reserved.

_audit_creation_date                  2025-07-04
_audit_creation_method                'Generated by PDF-5+ 2025 4.25.0.2'

_chemical_name_systematic             'Zinc Molybdenum Sulfide'
_chemical_formula_moiety              'Zn Mo6 S8'
_chemical_formula_sum                 'Mo6 S8 Zn'
_chemical_formula_weight              897.65

_cell_length_a                        9.531
_cell_length_b                        9.531
_cell_length_c                        10.286
_cell_angle_alpha                     90.0
_cell_angle_beta                      90.0
_cell_angle_gamma                     120.0
_cell_formula_units_Z                 3
_cell_volume                          809.20
_symmetry_cell_setting                hexagonal
_symmetry_space_group_name_H-M        R-3H
_symmetry_Int_Tables_number           148

loop_
_symmetry_equiv_pos_site_id
_symmetry_equiv_pos_as_xyz
1 x,y,z
2 -x,-y,-z
3 -y,x-y,z
4 y,-x+y,-z
5 -x+y,-x,z
6 x-y,x,-z
7 x+2/3,y+1/3,z+1/3
8 -x+2/3,-y+1/3,-z+1/3
9 -y+2/3,x-y+1/3,z+1/3
10 y+2/3,-x+y+1/3,-z+1/3
11 -x+y+2/3,-x+1/3,z+1/3
12 x-y+2/3,x+1/3,-z+1/3
13 x+1/3,y+2/3,z+2/3
14 -x+1/3,-y+2/3,-z+2/3
15 -y+1/3,x-y+2/3,z+2/3
16 y+1/3,-x+y+2/3,-z+2/3
17 -x+y+1/3,-x+2/3,z+2/3
18 x-y+1/3,x+2/3,-z+2/3

loop_
_atom_site_label
_atom_site_type_symbol
_atom_site_fract_x
_atom_site_fract_y
_atom_site_fract_z
_atom_site_U_iso_or_equiv
_atom_site_symmetry_multiplicity
_atom_site_Wyckoff_symbol
_atom_site_occupancy
Mo1 Mo 0.0165 0.1715 0.3142 . . . 1.0
S2 S 0.3142 0.2746 0.4096 . . . 1.0
S3 S 0.0 0.0 0.2055 . . . 1.0
Zn4 Zn 0.707 0.451 0.331 . . . 0.1666

