data_00-066-0292
# Copyright 2025 International Centre for Diffraction Data. All rights reserved.

_audit_creation_date                  2025-07-06
_audit_creation_method                'Generated by PDF-5+ 2025 4.25.0.2'

_chemical_name_systematic             'Lead Iron Niobium Oxide'
_chemical_formula_moiety              'Pb ( Fe0.5 Nb0.5 ) O3'
_chemical_formula_sum                 'Fe0.5 Nb0.5 O3 Pb'
_chemical_formula_weight              329.56

_cell_length_a                        5.675
_cell_length_b                        5.671
_cell_length_c                        4.018
_cell_angle_alpha                     90.0
_cell_angle_beta                      89.89
_cell_angle_gamma                     90.0
_cell_formula_units_Z                 2
_cell_volume                          129.31
_symmetry_cell_setting                monoclinic
_symmetry_space_group_name_H-M        C1m1
_symmetry_Int_Tables_number           8

loop_
_symmetry_equiv_pos_site_id
_symmetry_equiv_pos_as_xyz
1 x,y,z
2 x,-y,z
3 x+1/2,y+1/2,z
4 x+1/2,-y+1/2,z

loop_
_atom_site_label
_atom_site_type_symbol
_atom_site_fract_x
_atom_site_fract_y
_atom_site_fract_z
_atom_site_U_iso_or_equiv
_atom_site_symmetry_multiplicity
_atom_site_Wyckoff_symbol
_atom_site_occupancy
Pb1 Pb 0.0 0.0 0.0 . . . 1.0
Fe2 Fe 0.477 0.0 0.482 . . . 0.5
Nb3 Nb 0.477 0.0 0.482 . . . 0.5
O4 O 0.46 0.0 -0.03 . . . 1.0
O5 O 0.212 0.242 0.418 . . . 1.0

