data_00-054-1098
# Copyright 2025 International Centre for Diffraction Data. All rights reserved.

_audit_creation_date                  2025-07-04
_audit_creation_method                'Generated by PDF-5+ 2025 4.25.0.2'

_chemical_name_systematic             'Silver Calcium Phosphate'
_chemical_formula_moiety              'Ag Ca10 ( P O4 )7'
_chemical_formula_sum                 'Ag Ca10 O28 P7'
_chemical_formula_weight              1173.44

# Atomic parameters are cross-referenced from PDF entry 04-019-0207

_cell_length_a                        10.43723(5)
_cell_length_b                        10.43723(5)
_cell_length_c                        37.3379(7)
_cell_angle_alpha                     90
_cell_angle_beta                      90
_cell_angle_gamma                     120
_cell_formula_units_Z                 6
_cell_volume                          3522.50
_symmetry_cell_setting                hexagonal
_symmetry_space_group_name_H-M        R3c
_symmetry_Int_Tables_number           161

loop_
_symmetry_equiv_pos_site_id
_symmetry_equiv_pos_as_xyz
1 x,y,z
2 -y,x-y,z
3 -x+y,-x,z
4 -y,-x,z+1/2
5 x,x-y,z+1/2
6 -x+y,y,z+1/2
7 x+2/3,y+1/3,z+1/3
8 -y+2/3,x-y+1/3,z+1/3
9 -x+y+2/3,-x+1/3,z+1/3
10 -y+2/3,-x+1/3,z+5/6
11 x+2/3,x-y+1/3,z+5/6
12 -x+y+2/3,y+1/3,z+5/6
13 x+1/3,y+2/3,z+2/3
14 -y+1/3,x-y+2/3,z+2/3
15 -x+y+1/3,-x+2/3,z+2/3
16 -y+1/3,-x+2/3,z+1/6
17 x+1/3,x-y+2/3,z+1/6
18 -x+y+1/3,y+2/3,z+1/6

loop_
_atom_site_label
_atom_site_type_symbol
_atom_site_fract_x
_atom_site_fract_y
_atom_site_fract_z
_atom_site_U_iso_or_equiv
_atom_site_symmetry_multiplicity
_atom_site_Wyckoff_symbol
_atom_site_occupancy
Ag1 Ag 0.0 0.0 0.178 0.042 6 a 1.0
Ca2 Ca 0.33333 0.66666 0.1632 0.002 6 a 1.0
Ca3 Ca 0.465 0.526 0.0955 0.0044 18 b 1.0
Ca4 Ca 0.2864 0.1558 0.0625 0.004 18 b 1.0
Ca5 Ca 0.3992 0.1876 0.1565 0.0044 18 b 1.0
P6 P 0.66666 0.33333 0.0976 0.002 6 a 1.0
P7 P 0.1577 0.3495 0.0288 0.009 18 b 1.0
P8 P 0.1366 0.3111 0.1306 0.003 18 b 1.0
O9 O 0.66666 0.33333 0.1387 0.006 6 a 1.0
O10 O 0.5229 0.325 0.086 0.006 18 b 1.0
O11 O 0.082 0.1873 0.0421 0.005 18 b 1.0
O12 O 0.051 0.394 0.042 0.005 18 b 1.0
O13 O 0.173 0.3689 -0.0111 0.005 18 b 1.0
O14 O 0.316 0.44 0.0462 0.005 18 b 1.0
O15 O -0.0093 0.267 0.11 0.006 18 b 1.0
O16 O 0.241 0.4824 0.1261 0.006 18 b 1.0
O17 O 0.221 0.243 0.1161 0.006 18 b 1.0
O18 O 0.0887 0.267 0.17 0.006 18 b 1.0

