data_00-056-0324
# Copyright 2025 International Centre for Diffraction Data. All rights reserved.

_audit_creation_date                  2025-07-04
_audit_creation_method                'Generated by PDF-5+ 2025 4.25.0.2'

_chemical_name_systematic             'Aluminum Cerium Lanthanum Oxide'
_chemical_formula_moiety              'Ce0.5 La0.5 Al O3'
_chemical_formula_sum                 'Al Ce0.5 La0.5 O3'
_chemical_formula_weight              214.49

_cell_length_a                        3.81534(5)
_cell_length_b                        3.81534(5)
_cell_length_c                        3.81534(5)
_cell_angle_alpha                     90.0
_cell_angle_beta                      90.0
_cell_angle_gamma                     90.0
_cell_formula_units_Z                 1
_cell_volume                          55.54
_symmetry_cell_setting                cubic
_symmetry_space_group_name_H-M        Pm-3m
_symmetry_Int_Tables_number           221

loop_
_symmetry_equiv_pos_site_id
_symmetry_equiv_pos_as_xyz
1 x,y,z
2 -x,-y,-z
3 z,x,y
4 -z,-x,-y
5 y,z,x
6 -y,-z,-x
7 x,z,y
8 -x,-z,-y
9 y,x,z
10 -y,-x,-z
11 z,y,x
12 -z,-y,-x
13 x,-y,-z
14 -x,y,z
15 z,-x,-y
16 -z,x,y
17 y,-z,-x
18 -y,z,x
19 x,-z,-y
20 -x,z,y
21 y,-x,-z
22 -y,x,z
23 z,-y,-x
24 -z,y,x
25 -x,y,-z
26 x,-y,z
27 -z,x,-y
28 z,-x,y
29 -y,z,-x
30 y,-z,x
31 -x,z,-y
32 x,-z,y
33 -y,x,-z
34 y,-x,z
35 -z,y,-x
36 z,-y,x
37 -x,-y,z
38 x,y,-z
39 -z,-x,y
40 z,x,-y
41 -y,-z,x
42 y,z,-x
43 -x,-z,y
44 x,z,-y
45 -y,-x,z
46 y,x,-z
47 -z,-y,x
48 z,y,-x

loop_
_atom_site_label
_atom_site_type_symbol
_atom_site_fract_x
_atom_site_fract_y
_atom_site_fract_z
_atom_site_B_iso_or_equiv
_atom_site_symmetry_multiplicity
_atom_site_Wyckoff_symbol
_atom_site_occupancy
Ce1 Ce 0.5 0.5 0.5 1.7 1 b 0.5
La2 La 0.5 0.5 0.5 1.7 1 b 0.5
Al3 Al 0.0 0.0 0.0 1.18 1 a 1.0
O4 O 0.5 0.0 0.0 2.1 3 d 1.0

