data_00-062-0548
# Copyright 2025 International Centre for Diffraction Data. All rights reserved.

_audit_creation_date                  2025-07-06
_audit_creation_method                'Generated by PDF-5+ 2025 4.25.0.2'

_chemical_name_systematic             'Bismuth Chromium Manganese Oxide'
_chemical_formula_moiety              'Bi Cr0.5 Mn0.5 O3'
_chemical_formula_sum                 'Bi Cr0.5 Mn0.5 O3'
_chemical_formula_weight              310.44

# Atomic parameters are cross-referenced from PDF entry 04-017-7111

_cell_length_a                        9.4662(3)
_cell_length_b                        5.5577(2)
_cell_length_c                        9.6538(4)
_cell_angle_alpha                     90
_cell_angle_beta                      108.140(1)
_cell_angle_gamma                     90
_cell_formula_units_Z                 8
_cell_volume                          482.65
_symmetry_cell_setting                monoclinic
_symmetry_space_group_name_H-M        C2/c
_symmetry_Int_Tables_number           15

loop_
_symmetry_equiv_pos_site_id
_symmetry_equiv_pos_as_xyz
1 x,y,z
2 -x,-y,-z
3 -x,y,-z+1/2
4 x,-y,z+1/2
5 x+1/2,y+1/2,z
6 -x+1/2,-y+1/2,-z
7 -x+1/2,y+1/2,-z+1/2
8 x+1/2,-y+1/2,z+1/2

loop_
_atom_site_label
_atom_site_type_symbol
_atom_site_fract_x
_atom_site_fract_y
_atom_site_fract_z
_atom_site_B_iso_or_equiv
_atom_site_symmetry_multiplicity
_atom_site_Wyckoff_symbol
_atom_site_occupancy
Bi1 Bi 0.1328 0.2172 0.1287 0.68 8 f 0.952
Cr2 Cr 0.0 0.2303 0.75 0.82 4 e 0.5
Mn3 Mn 0.0 0.2303 0.75 0.82 4 e 0.5
Cr4 Cr 0.25 0.25 0.5 0.82 4 d 0.5
Mn5 Mn 0.25 0.25 0.5 0.82 4 d 0.5
O6 O 0.089 0.205 0.584 1.023 8 f 1.0
O7 O 0.149 0.557 0.378 1.023 8 f 1.0
O8 O 0.351 0.541 0.164 1.023 8 f 1.0

