data_00-061-0619
# Copyright 2025 International Centre for Diffraction Data. All rights reserved.

_audit_creation_date                  2025-07-04
_audit_creation_method                'Generated by PDF-5+ 2025 4.25.0.2'

_chemical_name_systematic             'Barium Strontium Cobalt Lanthanum Oxide'
_chemical_formula_moiety              'Ba4 Sr2 Co4 La2 O15'
_chemical_formula_sum                 'Ba4 Co4 La2 O15 Sr2'
_chemical_formula_weight              1478.08

_cell_length_a                        11.70221(11)
_cell_length_b                        11.70221(11)
_cell_length_c                        6.90836(8)
_cell_angle_alpha                     90.0
_cell_angle_beta                      90.0
_cell_angle_gamma                     120.0
_cell_formula_units_Z                 2
_cell_volume                          819.30
_symmetry_cell_setting                hexagonal
_symmetry_space_group_name_H-M        P63mc
_symmetry_Int_Tables_number           186

loop_
_symmetry_equiv_pos_site_id
_symmetry_equiv_pos_as_xyz
1 x,y,z
2 -y,x-y,z
3 -x+y,-x,z
4 -y,-x,z
5 x,x-y,z
6 -x+y,y,z
7 -x,-y,z+1/2
8 y,-x+y,z+1/2
9 x-y,x,z+1/2
10 y,x,z+1/2
11 -x,-x+y,z+1/2
12 x-y,-y,z+1/2

loop_
_atom_site_label
_atom_site_type_symbol
_atom_site_fract_x
_atom_site_fract_y
_atom_site_fract_z
_atom_site_U_iso_or_equiv
_atom_site_symmetry_multiplicity
_atom_site_Wyckoff_symbol
_atom_site_occupancy
Sr1 Sr 0.0 0.0 -0.0048 0.00548 . . 1.0
Ba2 Ba 0.17478 0.82522 0.17 0.00548 . . 1.0
Ba3 Ba 0.33333 0.66667 0.4801 0.00548 . . 1.0
Sr4 Sr 0.47599 0.52401 0.8255 0.00548 . . 0.33333
La5 La 0.47599 0.52401 0.8255 0.00548 . . 0.66667
Co6 Co 0.33333 0.66667 -0.0079 0.00347 . . 1.0
Co7 Co 0.17515 0.82485 0.6544 0.00347 . . 1.0
O8 O 0.6684 0.0733 0.028 0.01 . . 1.0
O9 O 0.24648 0.75352 0.8397 0.01 . . 1.0
O10 O 0.413 0.587 0.1502 0.01 . . 1.0
O11 O 0.90527 0.09473 0.2491 0.01 . . 1.0

