data_00-064-0303
# Copyright 2025 International Centre for Diffraction Data. All rights reserved.

_audit_creation_date                  2025-07-06
_audit_creation_method                'Generated by PDF-5+ 2025 4.25.0.2'

_chemical_name_systematic             'Ytterbium Oxide'
_chemical_formula_moiety              'Yb2 O3'
_chemical_formula_sum                 'O3 Yb2'
_chemical_formula_weight              394.11

# Atomic parameters are cross-referenced from PDF entry 04-001-8727

_cell_length_a                        13.72
_cell_length_b                        3.428
_cell_length_c                        8.437
_cell_angle_alpha                     90
_cell_angle_beta                      100.18
_cell_angle_gamma                     90
_cell_formula_units_Z                 6
_cell_volume                          390.56
_symmetry_cell_setting                monoclinic
_symmetry_space_group_name_H-M        C2/m
_symmetry_Int_Tables_number           12

loop_
_symmetry_equiv_pos_site_id
_symmetry_equiv_pos_as_xyz
1 x,y,z
2 -x,-y,-z
3 x,-y,z
4 -x,y,-z
5 x+1/2,y+1/2,z
6 -x+1/2,-y+1/2,-z
7 x+1/2,-y+1/2,z
8 -x+1/2,y+1/2,-z

loop_
_atom_site_label
_atom_site_type_symbol
_atom_site_fract_x
_atom_site_fract_y
_atom_site_fract_z
_atom_site_U_iso_or_equiv
_atom_site_symmetry_multiplicity
_atom_site_Wyckoff_symbol
_atom_site_occupancy
O1 O 0.0259 0.0 0.6562 . 4 i 1.0
Yb2 Yb 0.13463 0.0 0.49003 . 4 i 1.0
Yb3 Yb 0.18996 0.0 0.13782 . 4 i 1.0
O4 O 0.2984 0.0 0.3738 . 4 i 1.0
O5 O 0.325 0.0 0.0265 . 4 i 1.0
Yb6 Yb 0.46627 0.0 0.18794 . 4 i 1.0
O7 O 0.6289 0.0 0.2864 . 4 i 1.0
O8 O 0.0 0.0 0.0 . 2 a 1.0

