data_00-048-1191
# Copyright 2025 International Centre for Diffraction Data. All rights reserved.

_audit_creation_date                  2025-07-04
_audit_creation_method                'Generated by PDF-5+ 2025 4.25.0.2'

_chemical_name_systematic             'Lithium Calcium Cobalt Phosphate'
_chemical_formula_moiety              'Li Ca9 Co ( P O4 )7'
_chemical_formula_sum                 'Ca9 Co Li O28 P7'
_chemical_formula_weight              1091.37

# Atomic parameters are cross-referenced from PDF entry 04-011-5867

_cell_length_a                        10.3276(1)
_cell_length_b                        10.3276(1)
_cell_length_c                        37.100(1)
_cell_angle_alpha                     90
_cell_angle_beta                      90
_cell_angle_gamma                     120
_cell_formula_units_Z                 6
_cell_volume                          3426.91
_symmetry_cell_setting                hexagonal
_symmetry_space_group_name_H-M        R3c
_symmetry_Int_Tables_number           161

loop_
_symmetry_equiv_pos_site_id
_symmetry_equiv_pos_as_xyz
1 x,y,z
2 -y,x-y,z
3 -x+y,-x,z
4 -y,-x,z+1/2
5 x,x-y,z+1/2
6 -x+y,y,z+1/2
7 x+2/3,y+1/3,z+1/3
8 -y+2/3,x-y+1/3,z+1/3
9 -x+y+2/3,-x+1/3,z+1/3
10 -y+2/3,-x+1/3,z+5/6
11 x+2/3,x-y+1/3,z+5/6
12 -x+y+2/3,y+1/3,z+5/6
13 x+1/3,y+2/3,z+2/3
14 -y+1/3,x-y+2/3,z+2/3
15 -x+y+1/3,-x+2/3,z+2/3
16 -y+1/3,-x+2/3,z+1/6
17 x+1/3,x-y+2/3,z+1/6
18 -x+y+1/3,y+2/3,z+1/6

loop_
_atom_site_label
_atom_site_type_symbol
_atom_site_fract_x
_atom_site_fract_y
_atom_site_fract_z
_atom_site_B_iso_or_equiv
_atom_site_symmetry_multiplicity
_atom_site_Wyckoff_symbol
_atom_site_occupancy
Ca1 Ca 0.7261 0.8576 0.4335 0.41 18 b 1.0
Ca2 Ca 0.6147 0.8234 0.2319 0.37 18 b 1.0
Ca3 Ca 0.1242 0.2699 0.3256 1.05 18 b 1.0
Li4 Li 0.0 0.0 0.164 4.0 6 a 1.0
Co5 Co 0.0 0.0 0.0 0.36 6 a 1.0
P6 P 0.0 0.0 0.2658 0.9 6 a 1.0
P7 P 0.6851 0.8556 0.1347 0.5 18 b 1.0
P8 P 0.651 0.847 0.032 0.8 18 b 1.0
O9 O 0.0 0.0 0.3108 0.22 6 a 1.0
O10 O 0.0094 0.866 0.2571 0.22 18 b 1.0
O11 O 0.748 0.927 0.1752 0.22 18 b 1.0
O12 O 0.758 0.769 0.1202 0.22 18 b 1.0
O13 O 0.719 0.002 0.1127 0.22 18 b 1.0
O14 O 0.512 0.761 0.1338 0.22 18 b 1.0
O15 O 0.598 0.948 0.0435 0.22 18 b 1.0
O16 O 0.57 0.698 0.0528 0.22 18 b 1.0
O17 O 0.822 0.924 0.0395 0.22 18 b 1.0
O18 O 0.618 0.818 0.9911 0.22 18 b 1.0

