data_00-052-1690
# Copyright 2025 International Centre for Diffraction Data. All rights reserved.

_audit_creation_date                  2025-07-04
_audit_creation_method                'Generated by PDF-5+ 2025 4.25.0.2'

_chemical_name_systematic             'Sodium Indium Phosphate'
_chemical_name_common                 '\b-Na3 In2 ( P O4 )3'
_chemical_formula_moiety              'Na3 In2 ( P O4 )3'
_chemical_formula_sum                 'In2 Na3 O12 P3'
_chemical_formula_weight              583.52

# Atomic parameters are cross-referenced from PDF entry 04-009-5978

_cell_length_a                        12.450(1)
_cell_length_b                        12.786(1)
_cell_length_c                        6.5920(7)
_cell_angle_alpha                     90
_cell_angle_beta                      114.174(2)
_cell_angle_gamma                     90
_cell_formula_units_Z                 4
_cell_volume                          957.33
_symmetry_cell_setting                monoclinic
_symmetry_space_group_name_H-M        C2/c
_symmetry_Int_Tables_number           15

loop_
_symmetry_equiv_pos_site_id
_symmetry_equiv_pos_as_xyz
1 x,y,z
2 -x,-y,-z
3 -x,y,-z+1/2
4 x,-y,z+1/2
5 x+1/2,y+1/2,z
6 -x+1/2,-y+1/2,-z
7 -x+1/2,y+1/2,-z+1/2
8 x+1/2,-y+1/2,z+1/2

loop_
_atom_site_label
_atom_site_type_symbol
_atom_site_fract_x
_atom_site_fract_y
_atom_site_fract_z
_atom_site_U_iso_or_equiv
_atom_site_symmetry_multiplicity
_atom_site_Wyckoff_symbol
_atom_site_occupancy
Na1 Na 0.0 0.2767 0.25 0.0168 4 e 1.0
Na2 Na 0.0 0.0071 0.75 0.031 4 e 1.0
Na3 Na 0.5 0.0 0.5 0.0203 4 b 1.0
In4 In 0.22774 0.15589 0.15504 0.0077 8 f 1.0
P5 P 0.23934 -0.10171 0.1347 0.0075 8 f 1.0
P6 P 0.0 0.2732 0.75 0.0072 4 e 1.0
O7 O 0.3635 -0.0766 0.1692 0.0148 8 f 1.0
O8 O 0.2377 -0.1709 0.3299 0.0098 8 f 1.0
O9 O 0.166 -0.0015 0.1239 0.0097 8 f 1.0
O10 O 0.1712 -0.1624 -0.0848 0.011 8 f 1.0
O11 O 0.0516 0.2028 0.9568 0.0117 8 f 1.0
O12 O 0.089 0.3474 0.7173 0.011 8 f 1.0

