data_00-059-0780
# Copyright 2025 International Centre for Diffraction Data. All rights reserved.

_audit_creation_date                  2025-07-04
_audit_creation_method                'Generated by PDF-5+ 2025 4.25.0.2'

_chemical_name_systematic             'Sodium Ytterbium Phosphate Tungstate'
_chemical_formula_moiety              'Na2 Yb ( P O4 ) ( W O4 )'
_chemical_formula_sum                 'Na2 O8 P W Yb'
_chemical_formula_weight              561.84

# Atomic parameters are cross-referenced from PDF entry 04-018-8831

_cell_length_a                        17.988(4)
_cell_length_b                        12.019(2)
_cell_length_c                        6.7680(14)
_cell_angle_alpha                     90
_cell_angle_beta                      90
_cell_angle_gamma                     90
_cell_formula_units_Z                 8
_cell_volume                          1463.23
_symmetry_cell_setting                orthorhombic
_symmetry_space_group_name_H-M        Ibca
_symmetry_Int_Tables_number           73

loop_
_symmetry_equiv_pos_site_id
_symmetry_equiv_pos_as_xyz
1 x,y,z
2 -x,-y,-z
3 -x+1/2,-y,z+1/2
4 x+1/2,y,-z+1/2
5 -x,y+1/2,-z+1/2
6 x,-y+1/2,z+1/2
7 x+1/2,-y+1/2,-z
8 -x+1/2,y+1/2,z
9 x+1/2,y+1/2,z+1/2
10 -x+1/2,-y+1/2,-z+1/2
11 -x,-y+1/2,z
12 x,y+1/2,-z
13 -x+1/2,y,-z
14 x+1/2,-y,z
15 x,-y,-z+1/2
16 -x,y,z+1/2

loop_
_atom_site_label
_atom_site_type_symbol
_atom_site_fract_x
_atom_site_fract_y
_atom_site_fract_z
_atom_site_U_iso_or_equiv
_atom_site_symmetry_multiplicity
_atom_site_Wyckoff_symbol
_atom_site_occupancy
Na1 Na 0.5965 0.1863 -0.2612 0.044 16 f 1.0
W2 W 0.42669 0.0 0.75 0.0207 8 c 1.0
Yb3 Yb 0.75 0.072 0.0 0.01333 8 d 1.0
P4 P 0.25 0.181 0.0 0.015 8 d 1.0
O5 O 0.1821 0.2572 0.014 0.015 16 f 1.0
O6 O 0.2417 0.1012 -0.1771 0.01767 16 f 1.0
O7 O 0.3703 -0.0247 0.9636 0.023 16 f 1.0
O8 O 0.4811 -0.1182 0.7066 0.038 16 f 1.0

loop_
_atom_site_aniso_label
_atom_site_aniso_U_11
_atom_site_aniso_U_12
_atom_site_aniso_U_13
_atom_site_aniso_U_22
_atom_site_aniso_U_23
_atom_site_aniso_U_33
Na1 0.033 -0.02 0.001 0.065 0.0 0.034
W2 0.0183 0.0 0.0 0.0194 0.0016 0.0244
Yb3 0.0214 0.0 1.0E-4 0.0082 0.0 0.0104
P4 0.0263 0.0 7.0E-4 0.008 0.0 0.0107
O5 0.025 0.0 -0.004 0.013 -0.001 0.007
O6 0.03 0.0 0.001 0.008 0.001 0.015
O7 0.024 0.001 0.001 0.02 0.008 0.025
O8 0.042 0.019 -0.003 0.039 0.003 0.033

