data_00-066-0866
# Copyright 2025 International Centre for Diffraction Data. All rights reserved.

_audit_creation_date                  2025-07-06
_audit_creation_method                'Generated by PDF-5+ 2025 4.25.0.2'

_chemical_name_systematic             'Copper Scandium Oxide'
_chemical_formula_moiety              'Cu Sc O2'
_chemical_formula_sum                 'Cu O2 Sc'
_chemical_formula_weight              140.50

# Atomic parameters are cross-referenced from PDF entry 04-015-7071

_cell_length_a                        3.2187(1)
_cell_length_b                        3.2187(1)
_cell_length_c                        11.4037(1)
_cell_angle_alpha                     90
_cell_angle_beta                      90
_cell_angle_gamma                     120
_cell_formula_units_Z                 2
_cell_volume                          102.31
_symmetry_cell_setting                hexagonal
_symmetry_space_group_name_H-M        P63/mmc
_symmetry_Int_Tables_number           194

loop_
_symmetry_equiv_pos_site_id
_symmetry_equiv_pos_as_xyz
1 x,y,z
2 -x,-y,-z
3 -y,x-y,z
4 y,-x+y,-z
5 -x+y,-x,z
6 x-y,x,-z
7 -y,-x,z
8 y,x,-z
9 x,x-y,z
10 -x,-x+y,-z
11 -x+y,y,z
12 x-y,-y,-z
13 -x,-y,z+1/2
14 x,y,-z+1/2
15 y,-x+y,z+1/2
16 -y,x-y,-z+1/2
17 x-y,x,z+1/2
18 -x+y,-x,-z+1/2
19 y,x,z+1/2
20 -y,-x,-z+1/2
21 -x,-x+y,z+1/2
22 x,x-y,-z+1/2
23 x-y,-y,z+1/2
24 -x+y,y,-z+1/2

loop_
_atom_site_label
_atom_site_type_symbol
_atom_site_fract_x
_atom_site_fract_y
_atom_site_fract_z
_atom_site_U_iso_or_equiv
_atom_site_symmetry_multiplicity
_atom_site_Wyckoff_symbol
_atom_site_occupancy
Cu1 Cu 0.33333 0.66666 0.25 0.01057 2 c 1.0
Sc2 Sc 0.0 0.0 0.0 0.0054 2 a 1.0
O3 O 0.33333 0.66666 0.08954 0.00427 4 f 1.0

loop_
_atom_site_aniso_label
_atom_site_aniso_U_11
_atom_site_aniso_U_12
_atom_site_aniso_U_13
_atom_site_aniso_U_22
_atom_site_aniso_U_23
_atom_site_aniso_U_33
Cu1 0.0156 0.0078 0.0 0.0156 0.0 5.0E-4
Sc2 0.0048 0.0024 0.0 0.0048 0.0 0.0066
O3 0.0052 0.0026 0.0 0.0052 0.0 0.0024

