data_00-058-0280
# Copyright 2025 International Centre for Diffraction Data. All rights reserved.

_audit_creation_date                  2025-07-04
_audit_creation_method                'Generated by PDF-5+ 2025 4.25.0.2'

_chemical_name_systematic             'Lead Thulium Selenide'
_chemical_formula_moiety              'Pb Tm2 Se4'
_chemical_formula_sum                 'Pb Se4 Tm2'
_chemical_formula_weight              860.90

# Atomic parameters are cross-referenced from PDF entry 04-013-2524

_cell_length_a                        12.505(3)
_cell_length_b                        4.0630(8)
_cell_length_c                        14.820(3)
_cell_angle_alpha                     90
_cell_angle_beta                      90
_cell_angle_gamma                     90
_cell_formula_units_Z                 4
_cell_volume                          752.97
_symmetry_cell_setting                orthorhombic
_symmetry_space_group_name_H-M        Pnma
_symmetry_Int_Tables_number           62

loop_
_symmetry_equiv_pos_site_id
_symmetry_equiv_pos_as_xyz
1 x,y,z
2 -x,-y,-z
3 x+1/2,-y+1/2,-z+1/2
4 -x+1/2,y+1/2,z+1/2
5 -x,y+1/2,-z
6 x,-y+1/2,z
7 -x+1/2,-y,z+1/2
8 x+1/2,y,-z+1/2

loop_
_atom_site_label
_atom_site_type_symbol
_atom_site_fract_x
_atom_site_fract_y
_atom_site_fract_z
_atom_site_U_iso_or_equiv
_atom_site_symmetry_multiplicity
_atom_site_Wyckoff_symbol
_atom_site_occupancy
Tm1 Tm 0.43884 0.25 0.39019 0.00843 4 c 1.0
Tm2 Tm 0.4159 0.25 0.9044 0.0073 4 c 1.0
Pb3 Pb 0.7888 0.25 0.3365 0.01883 4 c 0.5
Pb4 Pb 0.7325 0.25 0.3216 0.0186 4 c 0.5
Se5 Se 0.2056 0.25 0.8326 0.008 4 c 1.0
Se6 Se 0.128 0.25 0.5308 0.00727 4 c 1.0
Se7 Se 0.5268 0.25 0.2152 0.01043 4 c 1.0
Se8 Se 0.4093 0.25 0.5762 0.00717 4 c 1.0

loop_
_atom_site_aniso_label
_atom_site_aniso_U_11
_atom_site_aniso_U_12
_atom_site_aniso_U_13
_atom_site_aniso_U_22
_atom_site_aniso_U_23
_atom_site_aniso_U_33
Tm1 0.0078 0.0 -0.0012 0.0098 0.0 0.0077
Tm2 0.0051 0.0 -8.0E-4 0.0088 0.0 0.008
Pb3 0.018 0.0 -0.0018 0.0217 0.0 0.0168
Pb4 0.0141 0.0 -0.0011 0.0227 0.0 0.019
Se5 0.0016 0.0 3.0E-4 0.0098 0.0 0.0126
Se6 0.0035 0.0 -0.0018 0.0097 0.0 0.0086
Se7 0.014 0.0 0.005 0.0103 0.0 0.007
Se8 0.0026 0.0 -7.0E-4 0.0102 0.0 0.0087

