data_00-063-0553
# Copyright 2025 International Centre for Diffraction Data. All rights reserved.

_audit_creation_date                  2025-07-06
_audit_creation_method                'Generated by PDF-5+ 2025 4.25.0.2'

_chemical_name_systematic             'Tin Vanadium Yttrium'
_chemical_name_common                 'stannide vanadium yttrium'
_chemical_formula_moiety              'Sn6 V6 Y'
_chemical_formula_sum                 'Sn6 V6 Y'
_chemical_formula_weight              1106.81

_cell_length_a                        5.52264(4)
_cell_length_b                        5.52264(4)
_cell_length_c                        9.18501(9)
_cell_angle_alpha                     90.0
_cell_angle_beta                      90.0
_cell_angle_gamma                     120.0
_cell_formula_units_Z                 1
_cell_volume                          242.61
_symmetry_cell_setting                hexagonal
_symmetry_space_group_name_H-M        P6/mmm
_symmetry_Int_Tables_number           191

loop_
_symmetry_equiv_pos_site_id
_symmetry_equiv_pos_as_xyz
1 x,y,z
2 -x,-y,-z
3 -y,x-y,z
4 y,-x+y,-z
5 -x+y,-x,z
6 x-y,x,-z
7 y,x,z
8 -y,-x,-z
9 -x,-x+y,z
10 x,x-y,-z
11 x-y,-y,z
12 -x+y,y,-z
13 -x,-y,z
14 x,y,-z
15 y,-x+y,z
16 -y,x-y,-z
17 x-y,x,z
18 -x+y,-x,-z
19 -y,-x,z
20 y,x,-z
21 x,x-y,z
22 -x,-x+y,-z
23 -x+y,y,z
24 x-y,-y,-z

loop_
_atom_site_label
_atom_site_type_symbol
_atom_site_fract_x
_atom_site_fract_y
_atom_site_fract_z
_atom_site_B_iso_or_equiv
_atom_site_symmetry_multiplicity
_atom_site_Wyckoff_symbol
_atom_site_occupancy
Y1 Y 0.0 0.0 0.0 1.54 1 a 1.0
V2 V 0.5 0.0 0.2507 0.74 6 i 1.0
Sn3 Sn 0.0 0.0 0.3343 1.31 2 e 1.0
Sn4 Sn 0.33333 0.66666 0.5 0.78 2 d 1.0
Sn5 Sn 0.33333 0.66666 0.0 0.77 2 c 1.0

