data_00-052-1687
# Copyright 2025 International Centre for Diffraction Data. All rights reserved.

_audit_creation_date                  2025-07-04
_audit_creation_method                'Generated by PDF-5+ 2025 4.25.0.2'

_chemical_name_systematic             'Strontium Gallium Tantalum Oxide Silicate'
_chemical_formula_moiety              'Sr3 Ta Ga3 Si2 O14'
_chemical_formula_sum                 'Ga3 O14 Si2 Sr3 Ta'
_chemical_formula_weight              933.14

# Atomic parameters are cross-referenced from PDF entry 04-011-3659

_cell_length_a                        8.293(2)
_cell_length_b                        8.293(2)
_cell_length_c                        5.078(2)
_cell_angle_alpha                     90
_cell_angle_beta                      90
_cell_angle_gamma                     120
_cell_formula_units_Z                 1
_cell_volume                          302.45
_symmetry_cell_setting                hexagonal
_symmetry_space_group_name_H-M        P321
_symmetry_Int_Tables_number           150

loop_
_symmetry_equiv_pos_site_id
_symmetry_equiv_pos_as_xyz
1 x,y,z
2 -y,x-y,z
3 -x+y,-x,z
4 y,x,-z
5 -x,-x+y,-z
6 x-y,-y,-z

loop_
_atom_site_label
_atom_site_type_symbol
_atom_site_fract_x
_atom_site_fract_y
_atom_site_fract_z
_atom_site_U_iso_or_equiv
_atom_site_symmetry_multiplicity
_atom_site_Wyckoff_symbol
_atom_site_occupancy
Sr1 Sr 0.4292 0.0 0.0 0.00808 3 e 1.0
Ta2 Ta 0.0 0.0 0.0 0.00533 1 a 1.0
Si3 Si 0.33333 0.66666 0.5341 0.0062 2 d 1.0
Ga4 Ga 0.7464 0.0 0.5 0.00653 3 f 1.0
O5 O 0.33333 0.66666 0.219 0.00967 2 d 1.0
O6 O 0.4742 0.3067 0.331 0.01144 6 g 1.0
O7 O 0.2208 0.0945 0.7693 0.01056 6 g 1.0

loop_
_atom_site_aniso_label
_atom_site_aniso_U_11
_atom_site_aniso_U_12
_atom_site_aniso_U_13
_atom_site_aniso_U_22
_atom_site_aniso_U_23
_atom_site_aniso_U_33
Sr1 0.0078 0.0046 5.0E-5 0.0092 1.0E-4 0.0077
Ta2 0.0058 0.0029 0.0 0.0058 0.0 0.0044
Si3 0.0068 0.0034 0.0 0.0068 0.0 0.005
Ga4 0.0068 0.0037 6.0E-4 0.0074 0.0012 0.0056
O5 0.01 0.005 0.0 0.01 0.0 0.009
O6 0.01 0.008 0.0 0.017 -0.002 0.009
O7 0.011 0.008 -0.001 0.014 -0.005 0.009

