data_00-067-0631
# Copyright 2025 International Centre for Diffraction Data. All rights reserved.

_audit_creation_date                  2025-07-06
_audit_creation_method                'Generated by PDF-5+ 2025 4.25.0.2'

_chemical_name_systematic             'Cerium Nickel Silicon'
_chemical_formula_moiety              'Ce3 Ni3 Si'
_chemical_formula_sum                 'Ce3 Ni3 Si'
_chemical_formula_weight              624.51

_cell_length_a                        4.0680(1)
_cell_length_b                        10.3028(2)
_cell_length_c                        13.3278(3)
_cell_angle_alpha                     90.0
_cell_angle_beta                      90.0
_cell_angle_gamma                     90.0
_cell_formula_units_Z                 4
_cell_volume                          558.59
_symmetry_cell_setting                orthorhombic
_symmetry_space_group_name_H-M        Cmcm
_symmetry_Int_Tables_number           63

loop_
_symmetry_equiv_pos_site_id
_symmetry_equiv_pos_as_xyz
1 x,y,z
2 -x,-y,-z
3 x,-y,-z
4 -x,y,z
5 x,y,-z+1/2
6 -x,-y,z+1/2
7 x,-y,z+1/2
8 -x,y,-z+1/2
9 x+1/2,y+1/2,z
10 -x+1/2,-y+1/2,-z
11 x+1/2,-y+1/2,-z
12 -x+1/2,y+1/2,z
13 x+1/2,y+1/2,-z+1/2
14 -x+1/2,-y+1/2,z+1/2
15 x+1/2,-y+1/2,z+1/2
16 -x+1/2,y+1/2,-z+1/2

loop_
_atom_site_label
_atom_site_type_symbol
_atom_site_fract_x
_atom_site_fract_y
_atom_site_fract_z
_atom_site_U_iso_or_equiv
_atom_site_symmetry_multiplicity
_atom_site_Wyckoff_symbol
_atom_site_occupancy
Ce1 Ce 0.0 0.2773 0.6033 . . . 1.0
Ce2 Ce 0.0 0.0062 0.25 . . . 1.0
Ni3 Ni 0.0 0.4354 0.0819 . . . 1.0
Ni4 Ni 0.0 0.0 0.0 . . . 0.1
Si5 Si 0.0 0.0 0.0 . . . 0.9
Ni6 Ni 0.0 0.3066 0.25 . . . 0.9
Si7 Si 0.0 0.3066 0.25 . . . 0.1

