data_00-070-0007
# Copyright 2025 International Centre for Diffraction Data. All rights reserved.

_audit_creation_date                  2025-07-06
_audit_creation_method                'Generated by PDF-5+ 2025 4.25.0.2'

_chemical_name_systematic             'Rubidium Nickel Silicate'
_chemical_formula_moiety              'Rb2 Ni Si5 O12'
_chemical_formula_sum                 'Ni O12 Rb2 Si5'
_chemical_formula_weight              562.05

_cell_length_a                        13.469(3)
_cell_length_b                        13.480(3)
_cell_length_c                        13.4423(20)
_cell_angle_alpha                     90
_cell_angle_beta                      90
_cell_angle_gamma                     90
_cell_formula_units_Z                 8
_cell_volume                          2440.56
_symmetry_cell_setting                orthorhombic
_symmetry_space_group_name_H-M        Pbca
_symmetry_Int_Tables_number           61

loop_
_symmetry_equiv_pos_site_id
_symmetry_equiv_pos_as_xyz
1 x,y,z
2 -x,-y,-z
3 x+1/2,-y+1/2,-z
4 -x+1/2,y+1/2,z
5 -x,y+1/2,-z+1/2
6 x,-y+1/2,z+1/2
7 -x+1/2,-y,z+1/2
8 x+1/2,y,-z+1/2

loop_
_atom_site_label
_atom_site_type_symbol
_atom_site_fract_x
_atom_site_fract_y
_atom_site_fract_z
_atom_site_U_iso_or_equiv
_atom_site_symmetry_multiplicity
_atom_site_Wyckoff_symbol
_atom_site_occupancy
Rb1 Rb 0.1367 0.1209 0.134 . . . 1.0
Rb2 Rb 0.41 0.3755 0.4037 . . . 1.0
Ni3 Ni 0.3641 0.837 0.9075 . . . 1.0
Si4 Si 0.1383 0.6631 0.617 . . . 1.0
Si5 Si 0.5913 0.1289 0.6577 . . . 1.0
Si6 Si 0.6419 0.5703 0.1057 . . . 1.0
Si7 Si 0.9207 0.3702 0.832 . . . 1.0
Si8 Si 0.8342 0.9051 0.3647 . . . 1.0
O9 O 0.468 0.383 0.155 . . . 1.0
O10 O 0.143 0.4529 0.415 . . . 1.0
O11 O 0.378 0.13 0.499 . . . 1.0
O12 O 0.7369 0.436 0.618 . . . 1.0
O13 O 0.658 0.7205 0.353 . . . 1.0
O14 O 0.416 0.628 0.7182 . . . 1.0
O15 O 0.9625 0.861 0.691 . . . 1.0
O16 O 0.633 0.977 0.86 . . . 1.0
O17 O 0.903 0.633 0.9607 . . . 1.0
O18 O 0.2157 0.928 0.146 . . . 1.0
O19 O 0.169 0.2028 0.898 . . . 1.0
O20 O 0.881 0.096 0.2232 . . . 1.0

