data_00-049-1225
# Copyright 2025 International Centre for Diffraction Data. All rights reserved.

_audit_creation_date                  2025-07-04
_audit_creation_method                'Generated by PDF-5+ 2025 4.25.0.2'

_chemical_name_systematic             'Sodium Calcium Cobalt Phosphate'
_chemical_formula_moiety              'Na Ca9 Co ( P O4 )7'
_chemical_formula_sum                 'Ca9 Co Na O28 P7'
_chemical_formula_weight              1107.42

# Atomic parameters are cross-referenced from PDF entry 04-011-5868

_cell_length_a                        10.3515(1)
_cell_length_b                        10.3515(1)
_cell_length_c                        37.073(1)
_cell_angle_alpha                     90
_cell_angle_beta                      90
_cell_angle_gamma                     120
_cell_formula_units_Z                 6
_cell_volume                          3440.29
_symmetry_cell_setting                hexagonal
_symmetry_space_group_name_H-M        R3c
_symmetry_Int_Tables_number           161

loop_
_symmetry_equiv_pos_site_id
_symmetry_equiv_pos_as_xyz
1 x,y,z
2 -y,x-y,z
3 -x+y,-x,z
4 -y,-x,z+1/2
5 x,x-y,z+1/2
6 -x+y,y,z+1/2
7 x+2/3,y+1/3,z+1/3
8 -y+2/3,x-y+1/3,z+1/3
9 -x+y+2/3,-x+1/3,z+1/3
10 -y+2/3,-x+1/3,z+5/6
11 x+2/3,x-y+1/3,z+5/6
12 -x+y+2/3,y+1/3,z+5/6
13 x+1/3,y+2/3,z+2/3
14 -y+1/3,x-y+2/3,z+2/3
15 -x+y+1/3,-x+2/3,z+2/3
16 -y+1/3,-x+2/3,z+1/6
17 x+1/3,x-y+2/3,z+1/6
18 -x+y+1/3,y+2/3,z+1/6

loop_
_atom_site_label
_atom_site_type_symbol
_atom_site_fract_x
_atom_site_fract_y
_atom_site_fract_z
_atom_site_B_iso_or_equiv
_atom_site_symmetry_multiplicity
_atom_site_Wyckoff_symbol
_atom_site_occupancy
Ca1 Ca 0.7281 0.8576 0.4332 0.35 18 b 1.0
Ca2 Ca 0.6157 0.8223 0.2323 0.36 18 b 1.0
Ca3 Ca 0.1223 0.2676 0.326 0.89 18 b 1.0
Na4 Na 0.0 0.0 0.1868 1.4 6 a 1.0
Co5 Co 0.0 0.0 0.0 0.17 6 a 1.0
P6 P 0.0 0.0 0.2678 1.1 6 a 1.0
P7 P 0.6875 0.8607 0.1356 0.5 18 b 1.0
P8 P 0.6567 0.8494 0.0317 0.6 18 b 1.0
O9 O 0.0 0.0 0.3103 0.29 6 a 1.0
O10 O 0.0067 0.863 0.2551 0.29 18 b 1.0
O11 O 0.745 0.924 0.1749 0.29 18 b 1.0
O12 O 0.759 0.771 0.1244 0.29 18 b 1.0
O13 O 0.722 0.004 0.1139 0.29 18 b 1.0
O14 O 0.517 0.766 0.1352 0.29 18 b 1.0
O15 O 0.601 0.953 0.0461 0.29 18 b 1.0
O16 O 0.574 0.7 0.0535 0.29 18 b 1.0
O17 O 0.829 0.925 0.0421 0.29 18 b 1.0
O18 O 0.621 0.822 0.9928 0.29 18 b 1.0

