data_00-064-0534
# Copyright 2025 International Centre for Diffraction Data. All rights reserved.

_audit_creation_date                  2025-07-06
_audit_creation_method                'Generated by PDF-5+ 2025 4.25.0.2'

_chemical_name_systematic             'Calcium Europium Silicate'
_chemical_formula_moiety              'Ca3 Eu2 Si3 O12'
_chemical_formula_sum                 'Ca3 Eu2 O12 Si3'
_chemical_formula_weight              700.41

_cell_length_a                        6.6014(8)
_cell_length_b                        15.768(2)
_cell_length_c                        10.107(1)
_cell_angle_alpha                     90.0
_cell_angle_beta                      90.0
_cell_angle_gamma                     90.0
_cell_formula_units_Z                 4
_cell_volume                          1052.05
_symmetry_cell_setting                orthorhombic
_symmetry_space_group_name_H-M        Pnma
_symmetry_Int_Tables_number           62

loop_
_symmetry_equiv_pos_site_id
_symmetry_equiv_pos_as_xyz
1 x,y,z
2 -x,-y,-z
3 x+1/2,-y+1/2,-z+1/2
4 -x+1/2,y+1/2,z+1/2
5 -x,y+1/2,-z
6 x,-y+1/2,z
7 -x+1/2,-y,z+1/2
8 x+1/2,y,-z+1/2

loop_
_atom_site_label
_atom_site_type_symbol
_atom_site_fract_x
_atom_site_fract_y
_atom_site_fract_z
_atom_site_U_iso_or_equiv
_atom_site_symmetry_multiplicity
_atom_site_Wyckoff_symbol
_atom_site_occupancy
Eu1 Eu 0.3778 0.09414 0.07094 0.0138 . . 0.4
Ca2 Ca 0.3778 0.09414 0.07094 0.0138 . . 0.6
Eu3 Eu 0.1753 0.61067 0.16675 0.0135 . . 0.38
Ca4 Ca 0.1753 0.61067 0.16675 0.0135 . . 0.62
Eu5 Eu 0.0262 0.25 0.1642 0.0194 . . 0.44
Ca6 Ca 0.0262 0.25 0.1642 0.0194 . . 0.56
Si7 Si 0.3598 0.0677 0.3732 0.008 . . 1.0
Si8 Si 0.0274 0.25 0.5789 0.0085 . . 1.0
O9 O 0.0292 0.1112 0.035 0.021 . . 1.0
O10 O 0.0367 0.6634 0.3476 0.0245 . . 1.0
O11 O 0.1941 0.0342 0.4784 0.0197 . . 1.0
O12 O 0.251 0.1391 0.2799 0.0182 . . 1.0
O13 O 0.4213 0.5114 0.2785 0.0231 . . 1.0
O14 O 0.2708 0.25 0.5819 0.0203 . . 1.0
O15 O 0.419 0.25 0.0637 0.0228 . . 1.0

