data_00-063-0273
# Copyright 2025 International Centre for Diffraction Data. All rights reserved.

_audit_creation_date                  2025-07-06
_audit_creation_method                'Generated by PDF-5+ 2025 4.25.0.2'

_chemical_name_systematic             'Dysprosium Nickel Germanium Sulfide'
_chemical_formula_moiety              'Dy3 Ni0.5 Ge S7'
_chemical_formula_sum                 'Dy3 Ge Ni0.5 S7'
_chemical_formula_weight              813.92

_cell_length_a                        9.7448(3)
_cell_length_b                        9.7448(3)
_cell_length_c                        5.7752(3)
_cell_angle_alpha                     90.0
_cell_angle_beta                      90.0
_cell_angle_gamma                     120.0
_cell_formula_units_Z                 2
_cell_volume                          474.95
_symmetry_cell_setting                hexagonal
_symmetry_space_group_name_H-M        P63
_symmetry_Int_Tables_number           173

loop_
_symmetry_equiv_pos_site_id
_symmetry_equiv_pos_as_xyz
1 x,y,z
2 -y,x-y,z
3 -x+y,-x,z
4 -x,-y,z+1/2
5 y,-x+y,z+1/2
6 x-y,x,z+1/2

loop_
_atom_site_label
_atom_site_type_symbol
_atom_site_fract_x
_atom_site_fract_y
_atom_site_fract_z
_atom_site_B_iso_or_equiv
_atom_site_symmetry_multiplicity
_atom_site_Wyckoff_symbol
_atom_site_occupancy
Dy1 Dy 0.6416 0.861 0.02 2.17 . . 1.0
Ni2 Ni 0.0 0.0 0.29 2.5 . . 0.5
Ge3 Ge 0.3333 0.6667 0.448 1.5 . . 1.0
S4 S 0.48 0.572 0.28 2.6 . . 1.0
S5 S 0.897 0.143 0.056 1.7 . . 1.0
S6 S 0.3333 0.6667 0.824 2.0 . . 1.0

