data_00-069-0650
# Copyright 2025 International Centre for Diffraction Data. All rights reserved.

_audit_creation_date                  2025-07-06
_audit_creation_method                'Generated by PDF-5+ 2025 4.25.0.2'

_chemical_name_systematic             'Bismuth Calcium Magnesium'
_chemical_formula_moiety              'Ca14 Mg Bi11'
_chemical_formula_sum                 'Bi11 Ca14 Mg'
_chemical_formula_weight              2884.18

_cell_length_a                        17.0470(17)
_cell_length_b                        17.0470(17)
_cell_length_c                        22.665(5)
_cell_angle_alpha                     90.0
_cell_angle_beta                      90.0
_cell_angle_gamma                     90.0
_cell_formula_units_Z                 8
_cell_volume                          6586.46
_symmetry_cell_setting                tetragonal
_symmetry_space_group_name_H-M        I41/acd
_symmetry_Int_Tables_number           142

loop_
_symmetry_equiv_pos_site_id
_symmetry_equiv_pos_as_xyz
1 x,y,z
2 -x,-y,-z
3 -x,y,z+1/2
4 x,-y,-z+1/2
5 y+3/4,x+3/4,z+3/4
6 -y+1/4,-x+1/4,-z+1/4
7 -y+1/4,x+3/4,z+1/4
8 y+3/4,-x+1/4,-z+3/4
9 x+1/2,-y,z
10 -x+1/2,y,-z
11 -x+1/2,-y,z+1/2
12 x+1/2,y,-z+1/2
13 y+1/4,-x+1/4,z+3/4
14 -y+3/4,x+3/4,-z+1/4
15 -y+3/4,-x+1/4,z+1/4
16 y+1/4,x+3/4,-z+3/4
17 x+1/2,y+1/2,z+1/2
18 -x+1/2,-y+1/2,-z+1/2
19 -x+1/2,y+1/2,z
20 x+1/2,-y+1/2,-z
21 y+1/4,x+1/4,z+1/4
22 -y+3/4,-x+3/4,-z+3/4
23 -y+3/4,x+1/4,z+3/4
24 y+1/4,-x+3/4,-z+1/4
25 x,-y+1/2,z+1/2
26 -x,y+1/2,-z+1/2
27 -x,-y+1/2,z
28 x,y+1/2,-z
29 y+3/4,-x+3/4,z+1/4
30 -y+1/4,x+1/4,-z+3/4
31 -y+1/4,-x+3/4,z+3/4
32 y+3/4,x+1/4,-z+1/4

loop_
_atom_site_label
_atom_site_type_symbol
_atom_site_fract_x
_atom_site_fract_y
_atom_site_fract_z
_atom_site_U_iso_or_equiv
_atom_site_symmetry_multiplicity
_atom_site_Wyckoff_symbol
_atom_site_occupancy
Ca1 Ca 0.04116 0.07374 0.1719 0.02637 . . 1.0
Ca2 Ca 0.02425 0.37638 0.00558 0.0309 . . 1.0
Ca3 Ca 0.3534 0.0 0.25 0.02567 . . 1.0
Ca4 Ca 0.34281 0.07312 0.09276 0.03003 . . 1.0
Mg5 Mg 0.0 0.25 0.375 0.02067 . . 1.0
Bi6 Bi 0.13928 0.38928 0.125 0.0235 . . 1.0
Bi7 Bi 0.35787 0.25588 0.05799 0.02503 . . 1.0
Bi8 Bi 0.12966 0.02695 0.0472 0.0265 . . 1.0
Bi9 Bi 0.0 0.25 0.125 0.0244 . . 1.0

loop_
_atom_site_aniso_label
_atom_site_aniso_U_11
_atom_site_aniso_U_12
_atom_site_aniso_U_13
_atom_site_aniso_U_22
_atom_site_aniso_U_23
_atom_site_aniso_U_33
Ca1 0.028 1.0E-4 2.0E-4 0.0246 -8.0E-4 0.0265
Ca2 0.029 0.0047 -5.0E-4 0.0331 -6.0E-4 0.0306
Ca3 0.028 0.0 0.0 0.023 0.0021 0.026
Ca4 0.037 0.0025 0.0029 0.0264 0.0035 0.0267
Mg5 0.021 0.0 0.0 0.021 0.0 0.02
Bi6 0.023 -0.0018 3.0E-4 0.023 -3.0E-4 0.0245
Bi7 0.023 -0.002 -0.0025 0.024 0.0029 0.0281
Bi8 0.0318 0.0043 0.0019 0.0238 0.0 0.0239
Bi9 0.0236 0.0032 0.0 0.0236 0.0 0.026

