data_00-062-0184
# Copyright 2025 International Centre for Diffraction Data. All rights reserved.

_audit_creation_date                  2025-07-06
_audit_creation_method                'Generated by PDF-5+ 2025 4.25.0.2'

_chemical_name_systematic             'Silver Gadolinium Germanium Sulfide'
_chemical_formula_moiety              'Ag0.63 Gd3 Ge S7'
_chemical_formula_sum                 'Ag0.63 Gd3 Ge S7'
_chemical_formula_weight              836.78

_cell_length_a                        9.9630(2)
_cell_length_b                        9.9630(2)
_cell_length_c                        5.7539(2)
_cell_angle_alpha                     90.0
_cell_angle_beta                      90.0
_cell_angle_gamma                     120.0
_cell_formula_units_Z                 2
_cell_volume                          494.62
_symmetry_cell_setting                hexagonal
_symmetry_space_group_name_H-M        P63
_symmetry_Int_Tables_number           173

loop_
_symmetry_equiv_pos_site_id
_symmetry_equiv_pos_as_xyz
1 x,y,z
2 -y,x-y,z
3 -x+y,-x,z
4 -x,-y,z+1/2
5 y,-x+y,z+1/2
6 x-y,x,z+1/2

loop_
_atom_site_label
_atom_site_type_symbol
_atom_site_fract_x
_atom_site_fract_y
_atom_site_fract_z
_atom_site_B_iso_or_equiv
_atom_site_symmetry_multiplicity
_atom_site_Wyckoff_symbol
_atom_site_occupancy
Gd1 Gd 0.8675 0.6383 0.231 1.82 . . 1.0
Ag2 Ag 0.0 0.0 0.085 3.3 . . 0.5
Ag3 Ag 0.0 0.0 0.954 4.5 . . 0.13
Ge4 Ge 0.3333 0.6667 0.312 1.3 . . 1.0
S5 S 0.3333 0.6667 0.953 1.9 . . 1.0
S6 S 0.9071 0.7328 0.693 0.5 . . 1.0
S7 S 0.577 0.489 0.976 0.6 . . 1.0

