data_00-057-0246
# Copyright 2025 International Centre for Diffraction Data. All rights reserved.

_audit_creation_date                  2025-07-04
_audit_creation_method                'Generated by PDF-5+ 2025 4.25.0.2'

_chemical_name_systematic             'Calcium Manganese Praseodymium Oxide'
_chemical_formula_moiety              'Pr0.8 Ca0.2 Mn O3'
_chemical_formula_sum                 'Ca0.2 Mn O3 Pr0.8'
_chemical_formula_weight              223.68

_cell_length_a                        5.5598(3)
_cell_length_b                        7.6555(4)
_cell_length_c                        5.4435(3)
_cell_angle_alpha                     90.0
_cell_angle_beta                      90.0
_cell_angle_gamma                     90.0
_cell_formula_units_Z                 4
_cell_volume                          231.69
_symmetry_cell_setting                orthorhombic
_symmetry_space_group_name_H-M        Pnma
_symmetry_Int_Tables_number           62

loop_
_symmetry_equiv_pos_site_id
_symmetry_equiv_pos_as_xyz
1 x,y,z
2 -x,-y,-z
3 x+1/2,-y+1/2,-z+1/2
4 -x+1/2,y+1/2,z+1/2
5 -x,y+1/2,-z
6 x,-y+1/2,z
7 -x+1/2,-y,z+1/2
8 x+1/2,y,-z+1/2

loop_
_atom_site_label
_atom_site_type_symbol
_atom_site_fract_x
_atom_site_fract_y
_atom_site_fract_z
_atom_site_B_iso_or_equiv
_atom_site_symmetry_multiplicity
_atom_site_Wyckoff_symbol
_atom_site_occupancy
Pr1 Pr 0.043 0.25 -0.0076 0.91 4 c 0.8
Ca2 Ca 0.043 0.25 -0.0076 0.91 4 c 0.2
Mn3 Mn 0.0 0.0 0.5 0.51 4 b 1.0
O4 O 0.487 0.25 0.071 1.7 4 c 1.0
O5 O 0.2032 0.5403 0.2163 0.6 8 d 1.0

