data_00-051-0097
# Copyright 2025 International Centre for Diffraction Data. All rights reserved.

_audit_creation_date                  2025-07-04
_audit_creation_method                'Generated by PDF-5+ 2025 4.25.0.2'

_chemical_name_systematic             'Potassium Neodymium Phosphate'
_chemical_formula_moiety              'K3 Nd ( P O4 )2'
_chemical_formula_sum                 'K3 Nd O8 P2'
_chemical_formula_weight              451.48
_chemical_melting_point               1673.0

# Atomic parameters are cross-referenced from PDF entry 04-011-3649

_cell_length_a                        9.532(2)
_cell_length_b                        5.631(3)
_cell_length_c                        7.444(3)
_cell_angle_alpha                     90
_cell_angle_beta                      90.95(2)
_cell_angle_gamma                     90
_cell_formula_units_Z                 2
_cell_volume                          399.50
_symmetry_cell_setting                monoclinic
_symmetry_space_group_name_H-M        P21/m
_symmetry_Int_Tables_number           11

loop_
_symmetry_equiv_pos_site_id
_symmetry_equiv_pos_as_xyz
1 x,y,z
2 -x,-y,-z
3 -x,y+1/2,-z
4 x,-y+1/2,z

loop_
_atom_site_label
_atom_site_type_symbol
_atom_site_fract_x
_atom_site_fract_y
_atom_site_fract_z
_atom_site_U_iso_or_equiv
_atom_site_symmetry_multiplicity
_atom_site_Wyckoff_symbol
_atom_site_occupancy
K1 K 0.31 0.25 0.493 . 2 e 1.0
K2 K 0.581 0.25 0.202 . 2 e 1.0
K3 K 0.905 0.25 0.639 . 2 e 1.0
Nd4 Nd 0.2085 0.25 0.9916 . 2 e 1.0
P5 P 0.926 0.25 0.194 . 2 e 1.0
P6 P 0.586 0.25 0.763 . 2 e 1.0
O7 O 0.43 0.25 0.827 . 2 e 1.0
O8 O 0.603 0.25 0.566 . 2 e 1.0
O9 O 0.08 0.25 0.284 . 2 e 1.0
O10 O 0.947 0.25 0.004 . 2 e 1.0
O11 O 0.343 0.535 0.154 . 4 f 1.0
O12 O 0.154 0.532 0.752 . 4 f 1.0

