data_00-062-0549
# Copyright 2025 International Centre for Diffraction Data. All rights reserved.

_audit_creation_date                  2025-07-06
_audit_creation_method                'Generated by PDF-5+ 2025 4.25.0.2'

_chemical_name_systematic             'Barium Lanthanum Titanium Niobium Oxide'
_chemical_formula_moiety              'Ba4 La Ti Nb9 O30'
_chemical_formula_sum                 'Ba4 La Nb9 O30 Ti'
_chemical_formula_weight              2052.21

# Atomic parameters are cross-referenced from PDF entry 04-021-8002

_cell_length_a                        12.47680(8)
_cell_length_b                        12.47680(8)
_cell_length_c                        3.94600(4)
_cell_angle_alpha                     90
_cell_angle_beta                      90
_cell_angle_gamma                     90
_cell_formula_units_Z                 2
_cell_volume                          614.28
_symmetry_cell_setting                tetragonal
_symmetry_space_group_name_H-M        P4bm
_symmetry_Int_Tables_number           100

loop_
_symmetry_equiv_pos_site_id
_symmetry_equiv_pos_as_xyz
1 x,y,z
2 -x,-y,z
3 x+1/2,-y+1/2,z
4 -x+1/2,y+1/2,z
5 -y,x,z
6 y,-x,z
7 y+1/2,x+1/2,z
8 -y+1/2,-x+1/2,z

loop_
_atom_site_label
_atom_site_type_symbol
_atom_site_fract_x
_atom_site_fract_y
_atom_site_fract_z
_atom_site_U_iso_or_equiv
_atom_site_symmetry_multiplicity
_atom_site_Wyckoff_symbol
_atom_site_occupancy
La1 La 0.0 0.0 0.033 0.0039 2 a 0.5
Ba2 Ba 0.17261 0.67261 0.0013 0.0334 4 c 1.0
Nb3 Nb 0.0 0.5 0.511 0.0268 2 b 0.9
Ti4 Ti 0.0 0.5 0.511 0.0268 2 b 0.1
Nb5 Nb 0.07313 0.212 0.5026 0.0144 8 d 0.9
Ti6 Ti 0.07313 0.212 0.5026 0.0144 8 d 0.1
O7 O 0.1355 0.0701 0.564 0.0132 8 d 1.0
O8 O 0.3383 0.0055 0.579 0.0092 8 d 1.0
O9 O 0.0715 0.214 0.049 0.0238 8 d 1.0
O10 O 0.2893 0.7893 0.447 0.0325 4 c 1.0
O11 O 0.0 0.5 0.025 0.0141 2 b 1.0

