data_00-050-0390
# Copyright 2025 International Centre for Diffraction Data. All rights reserved.

_audit_creation_date                  2025-07-04
_audit_creation_method                'Generated by PDF-5+ 2025 4.25.0.2'

_chemical_name_systematic             'Calcium Boron Gadolinium Oxide'
_chemical_formula_moiety              'Gd Ca4 B3 O10'
_chemical_formula_structural          'Gd Ca4 O ( B O3 )3'
_chemical_formula_sum                 'B3 Ca4 Gd O10'
_chemical_formula_weight              509.98

# Atomic parameters are cross-referenced from PDF entry 04-009-0601

_cell_length_a                        8.104(1)
_cell_length_b                        16.030(3)
_cell_length_c                        3.5584(3)
_cell_angle_alpha                     90
_cell_angle_beta                      101.250(8)
_cell_angle_gamma                     90
_cell_formula_units_Z                 2
_cell_volume                          453.38
_symmetry_cell_setting                monoclinic
_symmetry_space_group_name_H-M        Cm
_symmetry_Int_Tables_number           8

loop_
_symmetry_equiv_pos_site_id
_symmetry_equiv_pos_as_xyz
1 x,y,z
2 x,-y,z
3 x+1/2,y+1/2,z
4 x+1/2,-y+1/2,z

loop_
_atom_site_label
_atom_site_type_symbol
_atom_site_fract_x
_atom_site_fract_y
_atom_site_fract_z
_atom_site_U_iso_or_equiv
_atom_site_symmetry_multiplicity
_atom_site_Wyckoff_symbol
_atom_site_occupancy
Gd1 Gd 0.0 0.0 0.0 0.0068 2 a 0.86
Ca2 Ca 0.0 0.0 0.0 0.0068 2 a 0.14
Ca3 Ca 0.14232 0.38741 0.3283 0.0074 4 b 0.93
Gd4 Gd 0.14232 0.38741 0.3283 0.0074 4 b 0.07
Ca5 Ca 0.26091 0.18061 0.6529 0.0093 4 b 1.0
O6 O 0.8252 0.0 0.4175 0.0082 2 a 1.0
O7 O 0.4614 -0.0743 0.7492 0.0114 4 b 1.0
O8 O 0.2032 0.0 0.6043 0.0143 2 a 1.0
O9 O 1.0859 0.1434 0.0766 0.0105 4 b 1.0
O10 O 0.9675 0.2695 0.2746 0.0137 4 b 1.0
O11 O 0.7917 0.1728 -0.1149 0.0128 4 b 1.0
B12 B 0.3764 0.0 0.7011 0.0067 2 a 1.0
B13 B 0.9491 0.1947 0.0798 0.0077 4 b 1.0

