data_00-062-0192
# Copyright 2025 International Centre for Diffraction Data. All rights reserved.

_audit_creation_date                  2025-07-06
_audit_creation_method                'Generated by PDF-5+ 2025 4.25.0.2'

_chemical_name_systematic             'Lithium Iron Antimony Oxide'
_chemical_name_common                 'lithium iron antimonate'
_chemical_formula_moiety              'Li4 Fe Sb O6'
_chemical_formula_sum                 'Fe Li4 O6 Sb'
_chemical_formula_weight              301.36

# Atomic parameters are cross-referenced from PDF entry 04-020-0190

_cell_length_a                        5.1706(5)
_cell_length_b                        8.9382(5)
_cell_length_c                        5.1635(2)
_cell_angle_alpha                     90
_cell_angle_beta                      109.49(1)
_cell_angle_gamma                     90
_cell_formula_units_Z                 2
_cell_volume                          224.96
_symmetry_cell_setting                monoclinic
_symmetry_space_group_name_H-M        C2/m
_symmetry_Int_Tables_number           12

loop_
_symmetry_equiv_pos_site_id
_symmetry_equiv_pos_as_xyz
1 x,y,z
2 -x,-y,-z
3 x,-y,z
4 -x,y,-z
5 x+1/2,y+1/2,z
6 -x+1/2,-y+1/2,-z
7 x+1/2,-y+1/2,z
8 -x+1/2,y+1/2,-z

loop_
_atom_site_label
_atom_site_type_symbol
_atom_site_fract_x
_atom_site_fract_y
_atom_site_fract_z
_atom_site_U_iso_or_equiv
_atom_site_symmetry_multiplicity
_atom_site_Wyckoff_symbol
_atom_site_occupancy
Sb1 Sb 0.0 0.0 0.0 0.0378 2 a 0.759
Fe2 Fe 0.0 0.0 0.0 0.0378 2 a 0.241
Li3 Li 0.0 0.3383 0.0 0.003 4 g 0.5
Fe4 Fe 0.0 0.3383 0.0 0.003 4 g 0.38
Sb5 Sb 0.0 0.3383 0.0 0.003 4 g 0.12
Li6 Li 0.0 0.14817 0.5 0.0284 4 h 1.0
Li7 Li 0.0 0.5 0.5 0.0354 2 d 1.0
O8 O 0.7965 0.0 0.2245 0.014 4 i 1.0
O9 O 0.2192 0.1499 0.232 0.0016 8 j 1.0

