data_00-060-0447
# Copyright 2025 International Centre for Diffraction Data. All rights reserved.

_audit_creation_date                  2025-07-04
_audit_creation_method                'Generated by PDF-5+ 2025 4.25.0.2'

_chemical_name_systematic             'Barium Copper Neodymium Yttrium Oxide'
_chemical_formula_moiety              'Ba Cu ( Nd0.8 Y1.2 ) O5'
_chemical_formula_sum                 'Ba Cu Nd0.8 O5 Y1.2'
_chemical_formula_weight              502.95

_cell_length_a                        12.34021(11)
_cell_length_b                        5.71594(5)
_cell_length_c                        7.21160(6)
_cell_angle_alpha                     90.0
_cell_angle_beta                      90.0
_cell_angle_gamma                     90.0
_cell_formula_units_Z                 4
_cell_volume                          508.68
_symmetry_cell_setting                orthorhombic
_symmetry_space_group_name_H-M        Pnma
_symmetry_Int_Tables_number           62

loop_
_symmetry_equiv_pos_site_id
_symmetry_equiv_pos_as_xyz
1 x,y,z
2 -x,-y,-z
3 x+1/2,-y+1/2,-z+1/2
4 -x+1/2,y+1/2,z+1/2
5 -x,y+1/2,-z
6 x,-y+1/2,z
7 -x+1/2,-y,z+1/2
8 x+1/2,y,-z+1/2

loop_
_atom_site_label
_atom_site_type_symbol
_atom_site_fract_x
_atom_site_fract_y
_atom_site_fract_z
_atom_site_U_iso_or_equiv
_atom_site_symmetry_multiplicity
_atom_site_Wyckoff_symbol
_atom_site_occupancy
Ba1 Ba 0.9047 0.25 0.9334 0.0162 . . 1.0
Nd2 Nd 0.2891 0.25 0.1112 0.0118 . . 0.235
Y3 Y 0.2878 0.25 0.1155 0.0118 . . 0.765
Nd4 Nd 0.0754 0.25 0.3976 0.0118 . . 0.565
Y5 Y 0.0703 0.25 0.3911 0.0118 . . 0.435
Cu6 Cu 0.6601 0.25 0.7124 0.0162 . . 1.0
O7 O 0.4136 -0.0064 0.1701 0.0164 . . 1.0
O8 O 0.2275 0.5063 0.3462 0.0164 . . 1.0
O9 O 0.1043 0.25 0.0781 0.0164 . . 1.0

