data_00-056-0327
# Copyright 2025 International Centre for Diffraction Data. All rights reserved.

_audit_creation_date                  2025-07-04
_audit_creation_method                'Generated by PDF-5+ 2025 4.25.0.2'

_chemical_name_systematic             'Aluminum Cerium Lanthanum Oxide'
_chemical_formula_moiety              'Ce0.5 La0.5 Al O3'
_chemical_formula_sum                 'Al Ce0.5 La0.5 O3'
_chemical_formula_weight              214.49

# Atomic parameters are cross-referenced from PDF entry 04-014-7056

_cell_length_a                        5.3432(2)
_cell_length_b                        7.5457(3)
_cell_length_c                        5.3620(2)
_cell_angle_alpha                     90
_cell_angle_beta                      90
_cell_angle_gamma                     90
_cell_formula_units_Z                 4
_cell_volume                          216.19
_symmetry_cell_setting                orthorhombic
_symmetry_space_group_name_H-M        Imma
_symmetry_Int_Tables_number           74

loop_
_symmetry_equiv_pos_site_id
_symmetry_equiv_pos_as_xyz
1 x,y,z
2 -x,-y,-z
3 x,-y,-z
4 -x,y,z
5 x,y+1/2,-z
6 -x,-y+1/2,z
7 x,-y+1/2,z
8 -x,y+1/2,-z
9 x+1/2,y+1/2,z+1/2
10 -x+1/2,-y+1/2,-z+1/2
11 x+1/2,-y+1/2,-z+1/2
12 -x+1/2,y+1/2,z+1/2
13 x+1/2,y,-z+1/2
14 -x+1/2,-y,z+1/2
15 x+1/2,-y,z+1/2
16 -x+1/2,y,-z+1/2

loop_
_atom_site_label
_atom_site_type_symbol
_atom_site_fract_x
_atom_site_fract_y
_atom_site_fract_z
_atom_site_B_iso_or_equiv
_atom_site_symmetry_multiplicity
_atom_site_Wyckoff_symbol
_atom_site_occupancy
Ce1 Ce 0.0 0.25 0.5001 0.68 4 e 0.5
La2 La 0.0 0.25 0.5001 0.68 4 e 0.5
Al3 Al 0.0 0.0 0.0 0.6 4 a 1.0
O4 O 0.0 0.25 -0.032 1.1 4 e 1.0
O5 O 0.25 -0.018 0.25 1.0 8 g 1.0

