data_00-061-0124
# Copyright 2025 International Centre for Diffraction Data. All rights reserved.

_audit_creation_date                  2025-07-04
_audit_creation_method                'Generated by PDF-5+ 2025 4.25.0.2'

_chemical_name_systematic             'Antimony Cobalt Dysprosium'
_chemical_formula_moiety              'Co Dy5 Sb2'
_chemical_formula_sum                 'Co Dy5 Sb2'
_chemical_formula_weight              1114.95

_cell_length_a                        11.9935(7)
_cell_length_b                        8.8370(5)
_cell_length_c                        7.8288(5)
_cell_angle_alpha                     90.0
_cell_angle_beta                      90.0
_cell_angle_gamma                     90.0
_cell_formula_units_Z                 4
_cell_volume                          829.75
_symmetry_cell_setting                orthorhombic
_symmetry_space_group_name_H-M        Pnma
_symmetry_Int_Tables_number           62

loop_
_symmetry_equiv_pos_site_id
_symmetry_equiv_pos_as_xyz
1 x,y,z
2 -x,-y,-z
3 x+1/2,-y+1/2,-z+1/2
4 -x+1/2,y+1/2,z+1/2
5 -x,y+1/2,-z
6 x,-y+1/2,z
7 -x+1/2,-y,z+1/2
8 x+1/2,y,-z+1/2

loop_
_atom_site_label
_atom_site_type_symbol
_atom_site_fract_x
_atom_site_fract_y
_atom_site_fract_z
_atom_site_U_iso_or_equiv
_atom_site_symmetry_multiplicity
_atom_site_Wyckoff_symbol
_atom_site_occupancy
Dy1 Dy 0.2148 0.25 0.8369 . 4 c 1.0
Dy2 Dy -0.0077 0.25 0.531 . 4 c 1.0
Dy3 Dy 0.3045 0.25 0.3698 . 4 c 1.0
Dy4 Dy 0.0673 0.0404 0.1795 . 8 d 1.0
Co5 Co 0.48 0.25 0.582 . 4 c 1.0
Sb6 Sb 0.3278 0.0056 0.0693 . 8 d 1.0

