data_00-059-0223
# Copyright 2025 International Centre for Diffraction Data. All rights reserved.

_audit_creation_date                  2025-07-04
_audit_creation_method                'Generated by PDF-5+ 2025 4.25.0.2'

_chemical_name_systematic             'Copper Indium Lanthanum Sulfide'
_chemical_formula_moiety              'Cu In La2 S5'
_chemical_formula_sum                 'Cu In La2 S5'
_chemical_formula_weight              616.49

# Atomic parameters are cross-referenced from PDF entry 04-013-4832

_cell_length_a                        11.487(2)
_cell_length_b                        3.9760(8)
_cell_length_c                        16.911(3)
_cell_angle_alpha                     90
_cell_angle_beta                      90
_cell_angle_gamma                     90
_cell_formula_units_Z                 4
_cell_volume                          772.36
_symmetry_cell_setting                orthorhombic
_symmetry_space_group_name_H-M        Pnma
_symmetry_Int_Tables_number           62

loop_
_symmetry_equiv_pos_site_id
_symmetry_equiv_pos_as_xyz
1 x,y,z
2 -x,-y,-z
3 x+1/2,-y+1/2,-z+1/2
4 -x+1/2,y+1/2,z+1/2
5 -x,y+1/2,-z
6 x,-y+1/2,z
7 -x+1/2,-y,z+1/2
8 x+1/2,y,-z+1/2

loop_
_atom_site_label
_atom_site_type_symbol
_atom_site_fract_x
_atom_site_fract_y
_atom_site_fract_z
_atom_site_U_iso_or_equiv
_atom_site_symmetry_multiplicity
_atom_site_Wyckoff_symbol
_atom_site_occupancy
La1 La 0.48086 0.25 0.67851 0.0105 4 c 1.0
La2 La 0.13548 0.25 0.59233 0.0112 4 c 1.0
Cu3 Cu 0.596 0.25 0.5032 0.0232 4 c 0.82
Cu4 Cu 0.6478 0.25 0.5123 0.02367 4 c 0.18
In5 In 0.19638 0.25 0.3582 0.0155 4 c 1.0
S6 S 0.7404 0.25 0.7293 0.01333 4 c 1.0
S7 S 0.3971 0.25 0.4253 0.01247 4 c 1.0
S8 S 0.8851 0.25 0.538 0.01247 4 c 1.0
S9 S 0.6826 0.25 0.3826 0.0118 4 c 1.0
S10 S 0.4878 0.25 0.1939 0.01143 4 c 1.0

loop_
_atom_site_aniso_label
_atom_site_aniso_U_11
_atom_site_aniso_U_12
_atom_site_aniso_U_13
_atom_site_aniso_U_22
_atom_site_aniso_U_23
_atom_site_aniso_U_33
La1 0.0106 0.0 -2.0E-4 0.0078 0.0 0.0131
La2 0.0101 0.0 -1.0E-4 0.008 0.0 0.0155
Cu3 0.034 0.0 0.006 0.0182 0.0 0.0174
Cu4 0.035 0.0 0.005 0.019 0.0 0.017
In5 0.0114 0.0 -0.0028 0.0156 0.0 0.0195
S6 0.0119 0.0 -5.0E-4 0.0133 0.0 0.0148
S7 0.0129 0.0 0.0013 0.0085 0.0 0.016
S8 0.0125 0.0 -0.0011 0.0108 0.0 0.0141
S9 0.0092 0.0 -8.0E-4 0.0106 0.0 0.0156
S10 0.013 0.0 -1.0E-4 0.0088 0.0 0.0125

