data_00-062-0041
# Copyright 2025 International Centre for Diffraction Data. All rights reserved.

_audit_creation_date                  2025-07-06
_audit_creation_method                'Generated by PDF-5+ 2025 4.25.0.2'

_chemical_name_systematic             'Barium Strontium Cobalt Neodymium Oxide'
_chemical_formula_moiety              'Ba4 Sr2 Co4 Nd2 O15'
_chemical_formula_sum                 'Ba4 Co4 Nd2 O15 Sr2'
_chemical_formula_weight              1488.75

_cell_length_a                        11.64573(18)
_cell_length_b                        11.64573(18)
_cell_length_c                        6.86145(11)
_cell_angle_alpha                     90.0
_cell_angle_beta                      90.0
_cell_angle_gamma                     120.0
_cell_formula_units_Z                 2
_cell_volume                          805.90
_symmetry_cell_setting                hexagonal
_symmetry_space_group_name_H-M        P63mc
_symmetry_Int_Tables_number           186

loop_
_symmetry_equiv_pos_site_id
_symmetry_equiv_pos_as_xyz
1 x,y,z
2 -y,x-y,z
3 -x+y,-x,z
4 -y,-x,z
5 x,x-y,z
6 -x+y,y,z
7 -x,-y,z+1/2
8 y,-x+y,z+1/2
9 x-y,x,z+1/2
10 y,x,z+1/2
11 -x,-x+y,z+1/2
12 x-y,-y,z+1/2

loop_
_atom_site_label
_atom_site_type_symbol
_atom_site_fract_x
_atom_site_fract_y
_atom_site_fract_z
_atom_site_U_iso_or_equiv
_atom_site_symmetry_multiplicity
_atom_site_Wyckoff_symbol
_atom_site_occupancy
Sr1 Sr 0.0 0.0 0.0 0.01573 . . 1.0
Ba2 Ba 0.17453 0.82547 0.1757 0.01573 . . 1.0
Ba3 Ba 0.33333 0.66667 0.4875 0.01573 . . 1.0
Sr4 Sr 0.47617 0.52383 0.832 0.0103 . . 0.33333
Nd5 Nd 0.47617 0.52383 0.832 0.0103 . . 0.66667
Co6 Co 0.33333 0.66667 -0.0101 0.009 . . 1.0
Co7 Co 0.17588 0.82412 0.6563 0.009 . . 1.0
O8 O 0.6658 0.0673 0.0306 0.01 . . 1.0
O9 O 0.24689 0.75311 0.8387 0.01 . . 1.0
O10 O 0.4105 0.5895 0.1618 0.01 . . 1.0
O11 O 0.904 0.096 0.2571 0.01 . . 1.0

