data_00-066-0444
# Copyright 2025 International Centre for Diffraction Data. All rights reserved.

_audit_creation_date                  2025-07-06
_audit_creation_method                'Generated by PDF-5+ 2025 4.25.0.2'

_chemical_name_systematic             'Strontium Bismuth Iron Oxide'
_chemical_formula_moiety              'Bi0.85 Sr0.15 ( Fe O3 )'
_chemical_formula_sum                 'Bi0.85 Fe O3 Sr0.15'
_chemical_formula_weight              294.62

_cell_length_a                        3.9435(2)
_cell_length_b                        3.9435(2)
_cell_length_c                        3.9469(4)
_cell_angle_alpha                     90.0
_cell_angle_beta                      90.0
_cell_angle_gamma                     90.0
_cell_formula_units_Z                 1
_cell_volume                          61.38
_symmetry_cell_setting                tetragonal
_symmetry_space_group_name_H-M        P4/mmm
_symmetry_Int_Tables_number           123

loop_
_symmetry_equiv_pos_site_id
_symmetry_equiv_pos_as_xyz
1 x,y,z
2 -x,-y,-z
3 -x,-y,z
4 x,y,-z
5 -x,y,z
6 x,-y,-z
7 x,-y,z
8 -x,y,-z
9 -y,x,z
10 y,-x,-z
11 y,-x,z
12 -y,x,-z
13 y,x,z
14 -y,-x,-z
15 -y,-x,z
16 y,x,-z

loop_
_atom_site_label
_atom_site_type_symbol
_atom_site_fract_x
_atom_site_fract_y
_atom_site_fract_z
_atom_site_U_iso_or_equiv
_atom_site_symmetry_multiplicity
_atom_site_Wyckoff_symbol
_atom_site_occupancy
Bi1 Bi 0.0 0.0 0.0 0.02275 . . 0.85
Sr2 Sr 0.0 0.0 0.0 0.00568 . . 0.15
Fe3 Fe 0.5 0.5 0.5 0.01835 . . 1.0
O4 O 0.5 0.5 0.0 0.03082 . . 1.0
O5 O 0.5 0.0 0.5 0.00594 . . 1.0

