data_00-067-0073
# Copyright 2025 International Centre for Diffraction Data. All rights reserved.

_audit_creation_date                  2025-07-06
_audit_creation_method                'Generated by PDF-5+ 2025 4.25.0.2'

_chemical_name_systematic             'Lead Zirconium Titanium Oxide'
_chemical_name_common                 'lead zirconate titanate'
_chemical_formula_moiety              'Pb Zr0.53 Ti0.47 O3'
_chemical_formula_sum                 'O3 Pb Ti0.47 Zr0.53'
_chemical_formula_weight              326.03

_cell_length_a                        5.74813(2)
_cell_length_b                        5.74813(2)
_cell_length_c                        14.003439(6)
_cell_angle_alpha                     90.0
_cell_angle_beta                      90.0
_cell_angle_gamma                     120.0
_cell_formula_units_Z                 6
_cell_volume                          400.70
_symmetry_cell_setting                hexagonal
_symmetry_space_group_name_H-M        R3cH
_symmetry_Int_Tables_number           161

loop_
_symmetry_equiv_pos_site_id
_symmetry_equiv_pos_as_xyz
1 x,y,z
2 -y,x-y,z
3 -x+y,-x,z
4 -y,-x,z+1/2
5 x,x-y,z+1/2
6 -x+y,y,z+1/2
7 x+2/3,y+1/3,z+1/3
8 -y+2/3,x-y+1/3,z+1/3
9 -x+y+2/3,-x+1/3,z+1/3
10 -y+2/3,-x+1/3,z+5/6
11 x+2/3,x-y+1/3,z+5/6
12 -x+y+2/3,y+1/3,z+5/6
13 x+1/3,y+2/3,z+2/3
14 -y+1/3,x-y+2/3,z+2/3
15 -x+y+1/3,-x+2/3,z+2/3
16 -y+1/3,-x+2/3,z+1/6
17 x+1/3,x-y+2/3,z+1/6
18 -x+y+1/3,y+2/3,z+1/6

loop_
_atom_site_label
_atom_site_type_symbol
_atom_site_fract_x
_atom_site_fract_y
_atom_site_fract_z
_atom_site_U_iso_or_equiv
_atom_site_symmetry_multiplicity
_atom_site_Wyckoff_symbol
_atom_site_occupancy
Pb1 Pb 0.0 0.0 0.5 0.052 . . 1.0
Zr2 Zr 0.0 0.0 0.216 0.00633 . . 0.67127
Ti3 Ti 0.0 0.0 0.216 0.00633 . . 0.55351
O4 O 0.4346 0.0011 0.046 0.00633 . . 1.17767

