data_00-070-0027
# Copyright 2025 International Centre for Diffraction Data. All rights reserved.

_audit_creation_date                  2025-07-06
_audit_creation_method                'Generated by PDF-5+ 2025 4.25.0.2'

_chemical_name_systematic             'Calcium Lead Holmium Phosphate'
_chemical_formula_moiety              'Ca8.5 Pb0.5 Ho ( P O4 )7'
_chemical_formula_sum                 'Ca8.5 Ho O28 P7 Pb0.5'
_chemical_formula_weight              1273.98

_cell_length_a                        10.45917(17)
_cell_length_b                        10.45917(17)
_cell_length_c                        37.4210(8)
_cell_angle_alpha                     90.0
_cell_angle_beta                      90.0
_cell_angle_gamma                     120.0
_cell_formula_units_Z                 6
_cell_volume                          3545.20
_symmetry_cell_setting                hexagonal
_symmetry_space_group_name_H-M        R3cH
_symmetry_Int_Tables_number           161

loop_
_symmetry_equiv_pos_site_id
_symmetry_equiv_pos_as_xyz
1 x,y,z
2 -y,x-y,z
3 -x+y,-x,z
4 -y,-x,z+1/2
5 x,x-y,z+1/2
6 -x+y,y,z+1/2
7 x+2/3,y+1/3,z+1/3
8 -y+2/3,x-y+1/3,z+1/3
9 -x+y+2/3,-x+1/3,z+1/3
10 -y+2/3,-x+1/3,z+5/6
11 x+2/3,x-y+1/3,z+5/6
12 -x+y+2/3,y+1/3,z+5/6
13 x+1/3,y+2/3,z+2/3
14 -y+1/3,x-y+2/3,z+2/3
15 -x+y+1/3,-x+2/3,z+2/3
16 -y+1/3,-x+2/3,z+1/6
17 x+1/3,x-y+2/3,z+1/6
18 -x+y+1/3,y+2/3,z+1/6

loop_
_atom_site_label
_atom_site_type_symbol
_atom_site_fract_x
_atom_site_fract_y
_atom_site_fract_z
_atom_site_U_iso_or_equiv
_atom_site_symmetry_multiplicity
_atom_site_Wyckoff_symbol
_atom_site_occupancy
Ca1 Ca 0.723231 0.851204 0.432166 0.005 . . 0.828
Ca2 Ca 0.619598 0.811802 0.234255 0.005 . . 0.8387
Ca3 Ca 0.14294 0.2879 0.327817 0.005 . . 0.8332
Ca4 Ca 0.0 0.0 0.001823 0.005 . . 0.9994
P5 P 0.0 0.0 0.266561 0.005 . . 1.0
O6 O 0.0 0.0 0.311193 0.005 . . 1.0
O7 O -0.1635 -0.0091 0.254393 0.005 . . 1.0
P8 P 0.685169 0.845749 0.134772 0.005 . . 1.0
O9 O 0.7199 0.9141 0.177293 0.005 . . 1.0
O10 O 0.7802 0.782 0.122393 0.005 . . 1.0
O11 O 0.7202 1.0104 0.112893 0.005 . . 1.0
O12 O 0.5119 0.7392 0.125793 0.005 . . 1.0
P13 P 0.650979 0.848916 0.034624 0.005 . . 1.0
O14 O 0.5992 0.9611 0.043593 0.005 . . 1.0
O15 O 0.574 0.6871 0.054093 0.005 . . 1.0
O16 O 0.8344 0.9349 0.046093 0.005 . . 1.0
O17 O 0.6297 0.8242 -0.010407 0.005 . . 1.0
Ho18 Ho 0.0 0.0 0.001823 0.005 . . 5.0E-4
Ho19 Ho 0.723231 0.851204 0.432166 0.005 . . 0.172
Ho20 Ho 0.619598 0.811802 0.234255 0.005 . . 0.1613
Pb21 Pb 0.14294 0.2879 0.327817 0.005 . . 0.1668

