data_00-073-0302
# Copyright 2025 International Centre for Diffraction Data. All rights reserved.

_audit_creation_date                  2025-07-06
_audit_creation_method                'Generated by PDF-5+ 2025 4.25.0.2'

_chemical_name_systematic             'Yttrium Silicate Nitride'
_chemical_formula_moiety              'Y Si O2 N'
_chemical_formula_sum                 'N O2 Si Y'
_chemical_formula_weight              163.00

_cell_length_a                        6.9973(10)
_cell_length_b                        12.1470(17)
_cell_length_c                        18.2554(25)
_cell_angle_alpha                     90.00
_cell_angle_beta                      90.7345(26)
_cell_angle_gamma                     90.00
_cell_formula_units_Z                 24
_cell_volume                          1551.51
_symmetry_cell_setting                monoclinic
_symmetry_space_group_name_H-M        C12/c1
_symmetry_Int_Tables_number           15

loop_
_symmetry_equiv_pos_site_id
_symmetry_equiv_pos_as_xyz
1 x,y,z
2 -x,-y,-z
3 -x,y,-z+1/2
4 x,-y,z+1/2
5 x+1/2,y+1/2,z
6 -x+1/2,-y+1/2,-z
7 -x+1/2,y+1/2,-z+1/2
8 x+1/2,-y+1/2,z+1/2

loop_
_atom_site_label
_atom_site_type_symbol
_atom_site_fract_x
_atom_site_fract_y
_atom_site_fract_z
_atom_site_U_iso_or_equiv
_atom_site_symmetry_multiplicity
_atom_site_Wyckoff_symbol
_atom_site_occupancy
Y1 Y 1.0 0.99246 0.25 0.0073 . . 1.0
Y2 Y 0.98401 0.33505 0.4993 0.0075 . . 1.0
Y3 Y 1.0 0.34365 0.25 0.00804 . . 1.0
Y4 Y 0.0 0.67498 0.25 0.01002 . . 1.0
Y5 Y 1.0 1.0 0.5 0.01076 . . 1.0
Si6 Si 0.7937 0.79073 0.37835 0.0075 . . 1.0
Si7 Si 0.41849 0.6711 0.37145 0.0078 . . 1.0
Si8 Si 0.78628 0.54394 0.37512 0.0082 . . 1.0
O9 O 0.3065 0.6747 0.29203 0.0109 . . 1.0
O10 O 0.8578 0.848 0.30125 0.013 . . 1.0
O11 O 0.8398 0.4861 0.29688 0.0113 . . 1.0
O12 O 0.837 0.4838 0.45341 0.0127 . . 1.0
O13 O 0.8521 0.8453 0.45793 0.0115 . . 1.0
O14 O 0.3026 0.6732 0.44873 0.0135 . . 1.0
N15 N 0.5529 0.7885 0.3744 0.0071 . . 1.0
N16 N 0.9037 0.6651 0.37689 0.0074 . . 1.0
N17 N 0.5429 0.5512 0.3733 0.0059 . . 1.0

loop_
_atom_site_aniso_label
_atom_site_aniso_U_11
_atom_site_aniso_U_12
_atom_site_aniso_U_13
_atom_site_aniso_U_22
_atom_site_aniso_U_23
_atom_site_aniso_U_33
Y1 0.0088 0.0 -4.0E-4 0.0066 0.0 0.0065
Y2 0.0072 0.0018 -2.8E-4 0.0088 4.0E-4 0.0064
Y3 0.0114 0.0 6.0E-4 0.0062 0.0 0.0065
Y4 0.0051 0.0 -0.001 0.018 0.0 0.007
Y5 0.0157 -0.0074 9.0E-4 0.0101 -0.0012 0.0065
Si6 0.0085 -0.0012 -6.0E-4 0.0069 -3.0E-4 0.007
Si7 0.007 3.0E-4 4.0E-4 0.0083 -8.0E-4 0.0081
Si8 0.0094 7.0E-4 -2.0E-4 0.0073 -2.0E-4 0.0078
O9 0.0083 9.0E-4 -2.0E-4 0.0173 -3.0E-4 0.0071
O10 0.0188 -0.0036 0.0028 0.0102 0.0033 0.01
O11 0.0155 0.0046 0.0025 0.0095 -2.0E-4 0.009
O12 0.019 0.0043 0.0022 0.013 0.0034 0.006
O13 0.0185 -0.0031 -8.0E-4 0.0098 -5.0E-4 0.0062
O14 0.0088 2.0E-4 0.0042 0.0228 -0.0019 0.0089
N15 0.01 0.0015 0.0 0.006 0.0016 0.005
N16 0.0081 -0.0013 -7.0E-4 0.0064 -0.0012 0.0076
N17 0.007 8.0E-4 -0.002 0.006 3.0E-4 0.005

