data_00-061-0146
# Copyright 2025 International Centre for Diffraction Data. All rights reserved.

_audit_creation_date                  2025-07-04
_audit_creation_method                'Generated by PDF-5+ 2025 4.25.0.2'

_chemical_name_systematic             'Silver Cerium Silicon Selenide'
_chemical_formula_moiety              'Ag Ce3 Si Se7'
_chemical_formula_sum                 'Ag Ce3 Se7 Si'
_chemical_formula_weight              1109.02

_cell_length_a                        10.7236(1)
_cell_length_b                        10.7236(1)
_cell_length_c                        6.0285(1)
_cell_angle_alpha                     90.0
_cell_angle_beta                      90.0
_cell_angle_gamma                     120.0
_cell_formula_units_Z                 2
_cell_volume                          600.37
_symmetry_cell_setting                hexagonal
_symmetry_space_group_name_H-M        P63
_symmetry_Int_Tables_number           173

loop_
_symmetry_equiv_pos_site_id
_symmetry_equiv_pos_as_xyz
1 x,y,z
2 -y,x-y,z
3 -x+y,-x,z
4 -x,-y,z+1/2
5 y,-x+y,z+1/2
6 x-y,x,z+1/2

loop_
_atom_site_label
_atom_site_type_symbol
_atom_site_fract_x
_atom_site_fract_y
_atom_site_fract_z
_atom_site_B_iso_or_equiv
_atom_site_symmetry_multiplicity
_atom_site_Wyckoff_symbol
_atom_site_occupancy
Ce1 Ce 0.8732 0.6401 0.262 0.131 6 c 1.0
Ag2 Ag 0.0 0.0 0.688 0.3 2 a 1.0
Si3 Si 0.33333 0.66666 0.337 0.24 2 b 1.0
Se4 Se 0.33333 0.66666 0.979 0.2 2 b 1.0
Se5 Se 0.9055 0.7281 0.744 0.164 6 c 1.0
Se6 Se 0.589 0.4757 0.994 0.112 6 c 1.0

