data_00-064-0072
# Copyright 2025 International Centre for Diffraction Data. All rights reserved.

_audit_creation_date                  2025-07-06
_audit_creation_method                'Generated by PDF-5+ 2025 4.25.0.2'

_chemical_name_systematic             'Bismuth Samarium Iron Oxide'
_chemical_formula_moiety              'Bi0.9 Sm0.1 Fe O3'
_chemical_formula_sum                 'Bi0.9 Fe O3 Sm0.1'
_chemical_formula_weight              306.96

# Atomic parameters are cross-referenced from PDF entry 04-018-3153

_cell_length_a                        5.6048(2)
_cell_length_b                        11.2517(4)
_cell_length_c                        15.5824(6)
_cell_angle_alpha                     90
_cell_angle_beta                      90
_cell_angle_gamma                     90
_cell_formula_units_Z                 16
_cell_volume                          982.68
_symmetry_cell_setting                orthorhombic
_symmetry_space_group_name_H-M        Pnam
_symmetry_Int_Tables_number           62

loop_
_symmetry_equiv_pos_site_id
_symmetry_equiv_pos_as_xyz
1 x,y,z
2 -x,-y,-z
3 x+1/2,-y+1/2,-z+1/2
4 -x+1/2,y+1/2,z+1/2
5 -x,-y,z+1/2
6 x,y,-z+1/2
7 -x+1/2,y+1/2,-z
8 x+1/2,-y+1/2,z

loop_
_atom_site_label
_atom_site_type_symbol
_atom_site_fract_x
_atom_site_fract_y
_atom_site_fract_z
_atom_site_B_iso_or_equiv
_atom_site_symmetry_multiplicity
_atom_site_Wyckoff_symbol
_atom_site_occupancy
Bi1 Bi 0.1924 0.3725 0.9918 0.88 8 d 0.9
Sm2 Sm 0.1924 0.3725 0.9918 0.88 8 d 0.1
Bi3 Bi 0.2094 0.3637 0.25 0.88 4 c 0.9
Sm4 Sm 0.2094 0.3637 0.25 0.88 4 c 0.1
Bi5 Bi 0.7962 0.6273 0.25 0.88 4 c 0.9
Sm6 Sm 0.7962 0.6273 0.25 0.88 4 c 0.1
Fe7 Fe 0.7615 0.8806 0.1226 0.78 8 d 1.0
Fe8 Fe 0.7602 0.8787 0.6257 0.78 8 d 1.0
O9 O 0.2755 0.1574 0.9973 1.0 8 d 1.0
O10 O 0.3279 0.07 0.25 1.0 4 c 1.0
O11 O 0.0222 0.9878 0.1048 1.0 8 d 1.0
O12 O 0.5045 0.9991 0.0964 1.0 8 d 1.0
O13 O 0.2941 0.1018 0.75 1.0 4 c 1.0
O14 O 0.5633 0.2306 0.1411 1.0 8 d 1.0
O15 O 0.5248 0.2475 0.6285 1.0 8 d 1.0

