data_00-053-0295
# Copyright 2025 International Centre for Diffraction Data. All rights reserved.

_audit_creation_date                  2025-07-04
_audit_creation_method                'Generated by PDF-5+ 2025 4.25.0.2'

_chemical_name_systematic             'Sodium Erbium Molybdenum Oxide'
_chemical_formula_moiety              'Na5 Er Mo4 O16'
_chemical_formula_sum                 'Er Mo4 Na5 O16'
_chemical_formula_weight              922.03

# Atomic parameters are cross-referenced from PDF entry 04-017-2576

_cell_length_a                        11.3745(3)
_cell_length_b                        11.3745(3)
_cell_length_c                        11.4371(4)
_cell_angle_alpha                     90
_cell_angle_beta                      90
_cell_angle_gamma                     90
_cell_formula_units_Z                 4
_cell_volume                          1479.72
_symmetry_cell_setting                tetragonal
_symmetry_space_group_name_H-M        I41/a
_symmetry_Int_Tables_number           88

loop_
_symmetry_equiv_pos_site_id
_symmetry_equiv_pos_as_xyz
1 x,y,z
2 -x,-y,-z
3 -x+1/2,-y,z+1/2
4 x+1/2,y,-z+1/2
5 -y+3/4,x+1/4,z+1/4
6 y+1/4,-x+3/4,-z+3/4
7 y+3/4,-x+3/4,z+3/4
8 -y+1/4,x+1/4,-z+1/4
9 x+1/2,y+1/2,z+1/2
10 -x+1/2,-y+1/2,-z+1/2
11 -x,-y+1/2,z
12 x,y+1/2,-z
13 -y+1/4,x+3/4,z+3/4
14 y+3/4,-x+1/4,-z+1/4
15 y+1/4,-x+1/4,z+1/4
16 -y+3/4,x+3/4,-z+3/4

loop_
_atom_site_label
_atom_site_type_symbol
_atom_site_fract_x
_atom_site_fract_y
_atom_site_fract_z
_atom_site_U_iso_or_equiv
_atom_site_symmetry_multiplicity
_atom_site_Wyckoff_symbol
_atom_site_occupancy
Na1 Na 0.7049 0.8692 0.4058 0.0155 16 f 1.0
Na2 Na 0.5 0.25 0.375 0.032 4 a 1.0
Er3 Er 0.0 0.25 0.625 0.0106 4 b 1.0
Mo4 Mo 0.40664 0.93134 0.36344 0.0113 16 f 1.0
O5 O 0.4159 1.0702 0.4368 0.0139 16 f 1.0
O6 O 0.2851 0.9273 0.2719 0.0191 16 f 1.0
O7 O 0.3886 0.8126 0.4628 0.0157 16 f 1.0
O8 O 0.5311 0.8992 0.2776 0.017 16 f 1.0

