data_00-061-0144
# Copyright 2025 International Centre for Diffraction Data. All rights reserved.

_audit_creation_date                  2025-07-04
_audit_creation_method                'Generated by PDF-5+ 2025 4.25.0.2'

_chemical_name_systematic             'Copper Indium Germanium Sulfide'
_chemical_formula_moiety              'Cu In Ge S4'
_chemical_formula_sum                 'Cu Ge In S4'
_chemical_formula_weight              379.25

_cell_length_a                        5.5349(2)
_cell_length_b                        5.5349(2)
_cell_length_c                        10.0637(6)
_cell_angle_alpha                     90.0
_cell_angle_beta                      90.0
_cell_angle_gamma                     90.0
_cell_formula_units_Z                 2
_cell_volume                          308.30
_symmetry_cell_setting                tetragonal
_symmetry_space_group_name_H-M        I-4
_symmetry_Int_Tables_number           82

loop_
_symmetry_equiv_pos_site_id
_symmetry_equiv_pos_as_xyz
1 x,y,z
2 -x,-y,z
3 y,-x,-z
4 -y,x,-z
5 x+1/2,y+1/2,z+1/2
6 -x+1/2,-y+1/2,z+1/2
7 y+1/2,-x+1/2,-z+1/2
8 -y+1/2,x+1/2,-z+1/2

loop_
_atom_site_label
_atom_site_type_symbol
_atom_site_fract_x
_atom_site_fract_y
_atom_site_fract_z
_atom_site_U_iso_or_equiv
_atom_site_symmetry_multiplicity
_atom_site_Wyckoff_symbol
_atom_site_occupancy
Cu1 Cu 0.0 0.0 0.0 . 2 a 0.75
In2 In 0.0 0.0 0.0 . 2 a 0.25
Cu3 Cu 0.0 0.0 0.5 . 2 b 0.25
In4 In 0.0 0.0 0.5 . 2 a 0.75
Ge5 Ge 0.0 0.5 0.25 . 2 c 1.0
S6 S 0.2286 0.759 0.6347 . 8 g 1.0

