data_00-061-0363
# Copyright 2025 International Centre for Diffraction Data. All rights reserved.

_audit_creation_date                  2025-07-04
_audit_creation_method                'Generated by PDF-5+ 2025 4.25.0.2'

_chemical_name_systematic             'Cerium Gadolinium Oxide'
_chemical_formula_moiety              'Ce0.4 Gd0.6 O1.70'
_chemical_formula_sum                 'Ce0.4 Gd0.6 O1.7'
_chemical_formula_weight              177.59

_cell_length_a                        10.85420(10)
_cell_length_b                        10.85420(10)
_cell_length_c                        10.85420(10)
_cell_angle_alpha                     90.0
_cell_angle_beta                      90.0
_cell_angle_gamma                     90.0
_cell_formula_units_Z                 32
_cell_volume                          1278.77
_symmetry_cell_setting                cubic
_symmetry_space_group_name_H-M        IA-3
_symmetry_Int_Tables_number           206

loop_
_symmetry_equiv_pos_site_id
_symmetry_equiv_pos_as_xyz
1 x,y,z
2 -x,-y,-z
3 x,-y,-z+1/2
4 -x,y,z+1/2
5 -x+1/2,y,-z
6 x+1/2,-y,z
7 -x,-y+1/2,z
8 x,y+1/2,-z
9 z,x,y
10 -z,-x,-y
11 z,-x,-y+1/2
12 -z,x,y+1/2
13 -z+1/2,x,-y
14 z+1/2,-x,y
15 -z,-x+1/2,y
16 z,x+1/2,-y
17 y,z,x
18 -y,-z,-x
19 y,-z,-x+1/2
20 -y,z,x+1/2
21 -y+1/2,z,-x
22 y+1/2,-z,x
23 -y,-z+1/2,x
24 y,z+1/2,-x
25 x+1/2,y+1/2,z+1/2
26 -x+1/2,-y+1/2,-z+1/2
27 x+1/2,-y+1/2,-z
28 -x+1/2,y+1/2,z
29 -x,y+1/2,-z+1/2
30 x,-y+1/2,z+1/2
31 -x+1/2,-y,z+1/2
32 x+1/2,y,-z+1/2
33 z+1/2,x+1/2,y+1/2
34 -z+1/2,-x+1/2,-y+1/2
35 z+1/2,-x+1/2,-y
36 -z+1/2,x+1/2,y
37 -z,x+1/2,-y+1/2
38 z,-x+1/2,y+1/2
39 -z+1/2,-x,y+1/2
40 z+1/2,x,-y+1/2
41 y+1/2,z+1/2,x+1/2
42 -y+1/2,-z+1/2,-x+1/2
43 y+1/2,-z+1/2,-x
44 -y+1/2,z+1/2,x
45 -y,z+1/2,-x+1/2
46 y,-z+1/2,x+1/2
47 -y+1/2,-z,x+1/2
48 y+1/2,z,-x+1/2

loop_
_atom_site_label
_atom_site_type_symbol
_atom_site_fract_x
_atom_site_fract_y
_atom_site_fract_z
_atom_site_U_iso_or_equiv
_atom_site_symmetry_multiplicity
_atom_site_Wyckoff_symbol
_atom_site_occupancy
Gd1 Gd 0.25 0.25 0.25 0.02984 . . 0.6
Ce2 Ce 0.25 0.25 0.25 0.02984 . . 0.4
Gd3 Gd -0.0188 0.0 0.25 0.01591 . . 0.6
Ce4 Ce -0.0188 0.0 0.25 0.01591 . . 0.4
O5 O 0.388 0.1391 0.376 0.01635 . . 0.95
O6 O 0.401 0.401 0.401 0.01635 . . 0.56

