data_00-067-0470
# Copyright 2025 International Centre for Diffraction Data. All rights reserved.

_audit_creation_date                  2025-07-06
_audit_creation_method                'Generated by PDF-5+ 2025 4.25.0.2'

_chemical_name_systematic             'Bismuth Cerium Vanadium Oxide'
_chemical_formula_moiety              '( Bi0.9 Ce0.1 ) ( V O4 )'
_chemical_formula_sum                 'Bi0.9 Ce0.1 O4 V'
_chemical_formula_weight              317.03

# Atomic parameters are cross-referenced from PDF entry 04-020-4636

_cell_length_a                        5.1741
_cell_length_b                        5.1055
_cell_length_c                        11.7054(4)
_cell_angle_alpha                     90
_cell_angle_beta                      90
_cell_angle_gamma                     90.305
_cell_formula_units_Z                 4
_cell_volume                          309.21
_symmetry_cell_setting                monoclinic
_symmetry_space_group_name_H-M        I2/b
_symmetry_Int_Tables_number           15

loop_
_symmetry_equiv_pos_site_id
_symmetry_equiv_pos_as_xyz
1 x,y,z
2 -x,-y,-z
3 -x,-y+1/2,z
4 x,y+1/2,-z
5 x+1/2,y+1/2,z+1/2
6 -x+1/2,-y+1/2,-z+1/2
7 -x+1/2,-y,z+1/2
8 x+1/2,y,-z+1/2

loop_
_atom_site_label
_atom_site_type_symbol
_atom_site_fract_x
_atom_site_fract_y
_atom_site_fract_z
_atom_site_U_iso_or_equiv
_atom_site_symmetry_multiplicity
_atom_site_Wyckoff_symbol
_atom_site_occupancy
Bi1 Bi 0.0 0.25 0.63069 . 4 e 0.9
Ce2 Ce 0.0 0.25 0.63069 . 4 e 0.1
V3 V 0.0 0.25 0.12869 . 4 e 1.0
O4 O 0.14433 0.49127 0.20536 . 8 f 1.0
O5 O 0.25982 0.38235 0.44584 . 8 f 1.0

