data_00-049-1083
# Copyright 2025 International Centre for Diffraction Data. All rights reserved.

_audit_creation_date                  2025-07-04
_audit_creation_method                'Generated by PDF-5+ 2025 4.25.0.2'

_chemical_name_systematic             'Cobalt Iron Phosphate'
_chemical_formula_moiety              'Co3 Fe4 ( P O4 )6'
_chemical_formula_sum                 'Co3 Fe4 O24 P6'
_chemical_formula_weight              970.00

# Atomic parameters are cross-referenced from PDF entry 04-012-7178

_cell_length_a                        6.350(1)
_cell_length_b                        9.300(2)
_cell_length_c                        7.915(2)
_cell_angle_alpha                     104.70(1)
_cell_angle_beta                      101.52(1)
_cell_angle_gamma                     108.47(1)
_cell_formula_units_Z                 1
_cell_volume                          408.36
_symmetry_cell_setting                triclinic
_symmetry_space_group_name_H-M        P-1
_symmetry_Int_Tables_number           2

loop_
_symmetry_equiv_pos_site_id
_symmetry_equiv_pos_as_xyz
1 x,y,z
2 -x,-y,-z

loop_
_atom_site_label
_atom_site_type_symbol
_atom_site_fract_x
_atom_site_fract_y
_atom_site_fract_z
_atom_site_B_iso_or_equiv
_atom_site_symmetry_multiplicity
_atom_site_Wyckoff_symbol
_atom_site_occupancy
Co1 Co 0.0 0.0 0.0 0.5 1 a 0.764
Fe2 Fe 0.0 0.0 0.0 0.5 1 a 0.236
Fe3 Fe 0.3819 0.1131 0.4485 0.5 2 i 0.86
Co4 Co 0.3819 0.1131 0.4485 0.5 2 i 0.14
Co5 Co 0.274 0.271 -0.192 0.5 2 i 0.93
Fe6 Fe 0.274 0.271 -0.192 0.5 2 i 0.07
Fe7 Fe 0.0467 -0.4739 -0.2763 0.5 2 i 1.0
P8 P 0.099 -0.1718 -0.4138 0.5 2 i 1.0
P9 P 0.394 0.3618 0.2213 0.5 2 i 1.0
P10 P 0.231 -0.2297 0.1477 0.5 2 i 1.0
O11 O 0.267 0.2344 0.035 0.77 2 i 1.0
O12 O 0.315 -0.0729 -0.4607 0.77 2 i 1.0
O13 O 0.249 0.4631 0.2735 0.77 2 i 1.0
O14 O 0.448 0.2836 0.3627 0.77 2 i 1.0
O15 O 0.46 -0.2228 0.2729 0.77 2 i 1.0
O16 O 0.068 -0.3493 -0.4508 0.77 2 i 1.0
O17 O 0.123 -0.0808 -0.2066 0.77 2 i 1.0
O18 O 0.127 0.1671 -0.4614 0.77 2 i 1.0
O19 O -0.033 0.3276 -0.1988 0.77 2 i 1.0
O20 O 0.377 -0.492 -0.2281 0.77 2 i 1.0
O21 O 0.228 -0.0555 0.1964 0.77 2 i 1.0
O22 O 0.209 -0.2926 -0.0536 0.77 2 i 1.0

