data_00-064-0214
# Copyright 2025 International Centre for Diffraction Data. All rights reserved.

_audit_creation_date                  2025-07-06
_audit_creation_method                'Generated by PDF-5+ 2025 4.25.0.2'

_chemical_name_systematic             'Erbium Cobalt Germanium Sulfide'
_chemical_formula_moiety              'Er3 Co0.5 Ge S7'
_chemical_formula_sum                 'Co0.5 Er3 Ge S7'
_chemical_formula_weight              828.32

_cell_length_a                        9.6152(1)
_cell_length_b                        9.6152(1)
_cell_length_c                        5.8456(1)
_cell_angle_alpha                     90.0
_cell_angle_beta                      90.0
_cell_angle_gamma                     120.0
_cell_formula_units_Z                 2
_cell_volume                          468.03
_symmetry_cell_setting                hexagonal
_symmetry_space_group_name_H-M        P63
_symmetry_Int_Tables_number           173

loop_
_symmetry_equiv_pos_site_id
_symmetry_equiv_pos_as_xyz
1 x,y,z
2 -y,x-y,z
3 -x+y,-x,z
4 -x,-y,z+1/2
5 y,-x+y,z+1/2
6 x-y,x,z+1/2

loop_
_atom_site_label
_atom_site_type_symbol
_atom_site_fract_x
_atom_site_fract_y
_atom_site_fract_z
_atom_site_B_iso_or_equiv
_atom_site_symmetry_multiplicity
_atom_site_Wyckoff_symbol
_atom_site_occupancy
Er1 Er 0.6404 0.8563 0.981 1.71 6 c 1.0
Co2 Co 0.0 0.0 0.29 3.0 2 a 0.5
Ge3 Ge 0.3333 0.6667 0.407 1.9 2 b 1.0
S4 S 0.475 0.572 0.25 0.5 6 c 1.0
S5 S 0.899 0.141 0.025 0.7 6 c 1.0
S6 S 0.3333 0.6667 0.797 2.7 2 b 1.0

