data_00-070-0737
# Copyright 2025 International Centre for Diffraction Data. All rights reserved.

_audit_creation_date                  2025-07-06
_audit_creation_method                'Generated by PDF-5+ 2025 4.25.0.2'

_chemical_name_systematic             'Cerium Germanium Iridium'
_chemical_formula_moiety              'Ce3 Ge13 Ir4'
_chemical_formula_sum                 'Ce3 Ge13 Ir4'
_chemical_formula_weight              2133.41
_chemical_melting_point               1235.15

_cell_length_a                        18.0511(23)
_cell_length_b                        18.1183(11)
_cell_length_c                        9.0291(12)
_cell_angle_alpha                     90
_cell_angle_beta                      90
_cell_angle_gamma                     90
_cell_formula_units_Z                 8
_cell_volume                          2953.01
_symmetry_cell_setting                orthorhombic
_symmetry_space_group_name_H-M        Cmmm
_symmetry_Int_Tables_number           65

loop_
_symmetry_equiv_pos_site_id
_symmetry_equiv_pos_as_xyz
1 x,y,z
2 -x,-y,-z
3 -x,-y,z
4 x,y,-z
5 x,-y,-z
6 -x,y,z
7 -x,y,-z
8 x,-y,z
9 x+1/2,y+1/2,z
10 -x+1/2,-y+1/2,-z
11 -x+1/2,-y+1/2,z
12 x+1/2,y+1/2,-z
13 x+1/2,-y+1/2,-z
14 -x+1/2,y+1/2,z
15 -x+1/2,y+1/2,-z
16 x+1/2,-y+1/2,z

loop_
_atom_site_label
_atom_site_type_symbol
_atom_site_fract_x
_atom_site_fract_y
_atom_site_fract_z
_atom_site_U_iso_or_equiv
_atom_site_symmetry_multiplicity
_atom_site_Wyckoff_symbol
_atom_site_occupancy
Ce1 Ce 0.2498 0.1248 0.5 0.0229 8 q 1.0
Ce2 Ce 0.1233 0.248 0.0 0.01 8 p 1.0
Ce3 Ce 0.0 0.5 0.2522 0.024 4 l 1.0
Ce4 Ce 0.0 0.0 0.2475 0.025 4 k 1.0
Ir5 Ir 0.12503 0.1241 0.2455 0.0185 16 r 1.0
Ir6 Ir 0.37312 0.1266 0.2498 0.0126 16 r 1.0
Ge7 Ge 0.1516 0.2494 0.3604 0.0199 16 r 1.0
Ge8 Ge 0.2467 0.1514 0.1489 0.0199 16 r 1.0
Ge9 Ge 0.0679 0.3811 0.5 0.0199 8 q 1.0
Ge10 Ge 0.0796 0.0758 0.5 0.0199 8 q 1.0
Ge11 Ge 0.0757 0.0777 0.0 0.0199 8 p 1.0
Ge12 Ge 0.3899 0.07 0.0 0.0199 8 p 1.0
Ge13 Ge 0.1891 0.0 0.2418 0.0199 8 o 1.0
Ge14 Ge 0.3317 0.0 0.3502 0.0199 8 o 1.0
Ge15 Ge 0.0 0.1804 0.2545 0.0199 8 n 1.0
Ge16 Ge 0.0 0.33 0.159 0.0199 8 n 1.0
Ge17 Ge 0.0 0.2592 0.5 0.0199 4 j 1.0
Ge18 Ge 0.247 0.0 0.0 0.0199 4 g 1.0

