data_00-051-0171
# Copyright 2025 International Centre for Diffraction Data. All rights reserved.

_audit_creation_date                  2025-07-04
_audit_creation_method                'Generated by PDF-5+ 2025 4.25.0.2'

_chemical_name_systematic             'Cesium Magnesium Tungstate'
_chemical_formula_moiety              'Cs2 Mg2 ( W O4 )3'
_chemical_formula_sum                 'Cs2 Mg2 O12 W3'
_chemical_formula_weight              1057.93
_chemical_melting_point               1198.0

# Atomic parameters are cross-referenced from PDF entry 04-022-2639

_cell_length_a                        10.8783(6)
_cell_length_b                        10.8783(6)
_cell_length_c                        10.8783(6)
_cell_angle_alpha                     90
_cell_angle_beta                      90
_cell_angle_gamma                     90
_cell_formula_units_Z                 4
_cell_volume                          1287.31
_symmetry_cell_setting                cubic
_symmetry_space_group_name_H-M        P213
_symmetry_Int_Tables_number           198

loop_
_symmetry_equiv_pos_site_id
_symmetry_equiv_pos_as_xyz
1 x,y,z
2 z,x,y
3 y,z,x
4 x+1/2,-y+1/2,-z
5 z+1/2,-x+1/2,-y
6 y+1/2,-z+1/2,-x
7 -x,y+1/2,-z+1/2
8 -z,x+1/2,-y+1/2
9 -y,z+1/2,-x+1/2
10 -x+1/2,-y,z+1/2
11 -z+1/2,-x,y+1/2
12 -y+1/2,-z,x+1/2

loop_
_atom_site_label
_atom_site_type_symbol
_atom_site_fract_x
_atom_site_fract_y
_atom_site_fract_z
_atom_site_U_iso_or_equiv
_atom_site_symmetry_multiplicity
_atom_site_Wyckoff_symbol
_atom_site_occupancy
W1 W 0.19843 0.87596 0.97433 0.00807 12 b 1.0
Cs2 Cs 0.0417 0.5417 0.9583 0.02555 4 a 1.0
Cs3 Cs 0.322 1.178 0.822 0.01672 4 a 1.0
Mg4 Mg -0.11375 0.88625 0.88625 0.0088 4 a 1.0
Mg5 Mg 0.33703 0.83703 0.66297 0.0089 4 a 1.0
O6 O 0.251 0.8966 0.822 0.01833 12 b 1.0
O7 O 0.2217 1.015 1.0533 0.02033 12 b 1.0
O8 O 0.0431 0.8286 0.9804 0.01967 12 b 1.0
O9 O 0.2859 0.7628 1.0509 0.02 12 b 1.0

loop_
_atom_site_aniso_label
_atom_site_aniso_U_11
_atom_site_aniso_U_12
_atom_site_aniso_U_13
_atom_site_aniso_U_22
_atom_site_aniso_U_23
_atom_site_aniso_U_33
W1 0.0081 7.6E-4 4.0E-4 0.0079 -2.9E-4 0.00821
Cs2 0.02555 -0.00281 0.00281 0.02555 0.00281 0.02555
Cs3 0.01672 0.00163 -0.00163 0.01672 0.00163 0.01672
Mg4 0.0088 -2.0E-4 -2.0E-4 0.0088 -2.0E-4 0.0088
Mg5 0.0089 -7.0E-4 7.0E-4 0.0089 7.0E-4 0.0089
O6 0.022 0.0 0.0021 0.024 -0.0018 0.009
O7 0.027 -0.003 -3.0E-4 0.016 -0.0048 0.018
O8 0.015 -0.0038 0.002 0.024 0.007 0.02
O9 0.017 0.0043 -0.0011 0.02 0.008 0.023

