data_00-051-0195
# Copyright 2025 International Centre for Diffraction Data. All rights reserved.

_audit_creation_date                  2025-07-04
_audit_creation_method                'Generated by PDF-5+ 2025 4.25.0.2'

_chemical_name_systematic             'Mercury Phosphorus Titanium Chloride'
_chemical_formula_moiety              'Hg6 P4 Ti Cl7'
_chemical_formula_sum                 'Cl7 Hg6 P4 Ti'
_chemical_formula_weight              1623.47

# Atomic parameters are cross-referenced from PDF entry 04-009-8103

_cell_length_a                        11.7675(6)
_cell_length_b                        11.7675(6)
_cell_length_c                        11.7675(6)
_cell_angle_alpha                     90
_cell_angle_beta                      90
_cell_angle_gamma                     90
_cell_formula_units_Z                 4
_cell_volume                          1629.49
_symmetry_cell_setting                cubic
_symmetry_space_group_name_H-M        Pa-3
_symmetry_Int_Tables_number           205

loop_
_symmetry_equiv_pos_site_id
_symmetry_equiv_pos_as_xyz
1 x,y,z
2 -x,-y,-z
3 x+1/2,-y+1/2,-z
4 -x+1/2,y+1/2,z
5 -x,y+1/2,-z+1/2
6 x,-y+1/2,z+1/2
7 -x+1/2,-y,z+1/2
8 x+1/2,y,-z+1/2
9 z,x,y
10 -z,-x,-y
11 z+1/2,-x+1/2,-y
12 -z+1/2,x+1/2,y
13 -z,x+1/2,-y+1/2
14 z,-x+1/2,y+1/2
15 -z+1/2,-x,y+1/2
16 z+1/2,x,-y+1/2
17 y,z,x
18 -y,-z,-x
19 y+1/2,-z+1/2,-x
20 -y+1/2,z+1/2,x
21 -y,z+1/2,-x+1/2
22 y,-z+1/2,x+1/2
23 -y+1/2,-z,x+1/2
24 y+1/2,z,-x+1/2

loop_
_atom_site_label
_atom_site_type_symbol
_atom_site_fract_x
_atom_site_fract_y
_atom_site_fract_z
_atom_site_U_iso_or_equiv
_atom_site_symmetry_multiplicity
_atom_site_Wyckoff_symbol
_atom_site_occupancy
P1 P 0.1613 0.1613 0.1613 0.005 8 c 1.0
Ti2 Ti 0.0 0.0 0.5 0.006 4 b 1.0
Hg3 Hg 0.3009 0.0398 0.6935 0.0119 24 d 1.0
P4 P 0.7307 0.7307 0.7307 0.004 8 c 1.0
Cl5 Cl 0.9544 0.1964 0.4599 0.0107 24 d 1.0
Cl6 Cl 0.5 0.0 0.5 0.036 4 a 1.0

