data_00-070-0129
# Copyright 2025 International Centre for Diffraction Data. All rights reserved.

_audit_creation_date                  2025-07-06
_audit_creation_method                'Generated by PDF-5+ 2025 4.25.0.2'

_chemical_name_systematic             'Calcium Thulium Phosphate'
_chemical_formula_moiety              'Ca9 Tm ( P O4 )7'
_chemical_formula_sum                 'Ca9 O28 P7 Tm'
_chemical_formula_weight              1194.43

_cell_length_a                        10.4121(3)
_cell_length_b                        10.4121(3)
_cell_length_c                        37.281(2)
_cell_angle_alpha                     90
_cell_angle_beta                      90
_cell_angle_gamma                     120
_cell_formula_units_Z                 6
_cell_volume                          3500.22
_symmetry_cell_setting                hexagonal
_symmetry_space_group_name_H-M        R3cH
_symmetry_Int_Tables_number           161

loop_
_symmetry_equiv_pos_site_id
_symmetry_equiv_pos_as_xyz
1 x,y,z
2 -y,x-y,z
3 -x+y,-x,z
4 -y,-x,z+1/2
5 x,x-y,z+1/2
6 -x+y,y,z+1/2
7 x+2/3,y+1/3,z+1/3
8 -y+2/3,x-y+1/3,z+1/3
9 -x+y+2/3,-x+1/3,z+1/3
10 -y+2/3,-x+1/3,z+5/6
11 x+2/3,x-y+1/3,z+5/6
12 -x+y+2/3,y+1/3,z+5/6
13 x+1/3,y+2/3,z+2/3
14 -y+1/3,x-y+2/3,z+2/3
15 -x+y+1/3,-x+2/3,z+2/3
16 -y+1/3,-x+2/3,z+1/6
17 x+1/3,x-y+2/3,z+1/6
18 -x+y+1/3,y+2/3,z+1/6

loop_
_atom_site_label
_atom_site_type_symbol
_atom_site_fract_x
_atom_site_fract_y
_atom_site_fract_z
_atom_site_U_iso_or_equiv
_atom_site_symmetry_multiplicity
_atom_site_Wyckoff_symbol
_atom_site_occupancy
Ca1 Ca 0.3892 1.179 0.9987 0.012 . . 0.879
Tm2 Tm 0.3892 1.179 0.9987 0.012 . . 0.121
Ca3 Ca 0.6216 0.811 0.9666 0.012 . . 0.891
Tm4 Tm 0.6216 0.811 0.9666 0.012 . . 0.109
Ca5 Ca 0.81 1.199 0.8932 0.012 . . 1.0
Ca6 Ca 0.3333 0.6667 0.8997 0.012 . . 0.686
Tm7 Tm 0.3333 0.6667 0.8997 0.012 . . 0.314
P8 P 1.0 1.0 1.001 0.013 . . 1.0
P9 P 0.685 0.837 0.8661 0.013 . . 1.0
P10 P 0.521 1.006 0.9327 0.013 . . 1.0
O11 O 0.714 0.816 0.9079 0.002 . . 1.0
O12 O 0.733 0.734 0.847 0.002 . . 1.0
O13 O 0.759 0.987 0.8556 0.002 . . 1.0
O14 O 0.521 0.765 0.8596 0.002 . . 1.0
O15 O 0.428 0.843 0.9428 0.002 . . 1.0
O16 O 0.445 1.091 0.9485 0.002 . . 1.0
O17 O 0.672 1.058 0.947 0.002 . . 1.0
O18 O 0.525 1.027 0.8932 0.002 . . 1.0
O19 O 0.86 0.869 0.989 0.002 . . 1.0
O20 O 1.0 1.0 1.041 0.002 . . 1.0

