data_00-067-0555
# Copyright 2025 International Centre for Diffraction Data. All rights reserved.

_audit_creation_date                  2025-07-06
_audit_creation_method                'Generated by PDF-5+ 2025 4.25.0.2'

_chemical_name_systematic             'Cobalt Holmium Nickel'
_chemical_formula_moiety              'Co Ho Ni'
_chemical_formula_sum                 'Co Ho Ni'
_chemical_formula_weight              282.56

_cell_length_a                        7.1257(2)
_cell_length_b                        7.1257(2)
_cell_length_c                        7.1257(2)
_cell_angle_alpha                     90.0
_cell_angle_beta                      90.0
_cell_angle_gamma                     90.0
_cell_formula_units_Z                 8
_cell_volume                          361.81
_symmetry_cell_setting                cubic
_symmetry_space_group_name_H-M        Fd-3m
_symmetry_Int_Tables_number           227

loop_
_symmetry_equiv_pos_site_id
_symmetry_equiv_pos_as_xyz
1 x,y,z
2 -x,-y,-z
3 x,-y+1/4,-z+1/4
4 -x,y+3/4,z+3/4
5 -x+1/4,y,-z+1/4
6 x+3/4,-y,z+3/4
7 -x+1/4,-y+1/4,z
8 x+3/4,y+3/4,-z
9 z,x,y
10 -z,-x,-y
11 z,-x+1/4,-y+1/4
12 -z,x+3/4,y+3/4
13 -z+1/4,x,-y+1/4
14 z+3/4,-x,y+3/4
15 -z+1/4,-x+1/4,y
16 z+3/4,x+3/4,-y
17 y,z,x
18 -y,-z,-x
19 y,-z+1/4,-x+1/4
20 -y,z+3/4,x+3/4
21 -y+1/4,z,-x+1/4
22 y+3/4,-z,x+3/4
23 -y+1/4,-z+1/4,x
24 y+3/4,z+3/4,-x
25 x,z,y
26 -x,-z,-y
27 x,-z+1/4,-y+1/4
28 -x,z+3/4,y+3/4
29 -x+1/4,z,-y+1/4
30 x+3/4,-z,y+3/4
31 -x+1/4,-z+1/4,y
32 x+3/4,z+3/4,-y
33 y,x,z
34 -y,-x,-z
35 y,-x+1/4,-z+1/4
36 -y,x+3/4,z+3/4
37 -y+1/4,x,-z+1/4
38 y+3/4,-x,z+3/4
39 -y+1/4,-x+1/4,z
40 y+3/4,x+3/4,-z
41 z,y,x
42 -z,-y,-x
43 z,-y+1/4,-x+1/4
44 -z,y+3/4,x+3/4
45 -z+1/4,y,-x+1/4
46 z+3/4,-y,x+3/4
47 -z+1/4,-y+1/4,x
48 z+3/4,y+3/4,-x
49 x,y+1/2,z+1/2
50 -x,-y+1/2,-z+1/2
51 x,-y+3/4,-z+3/4
52 -x,y+1/4,z+1/4
53 -x+1/4,y+1/2,-z+3/4
54 x+3/4,-y+1/2,z+1/4
55 -x+1/4,-y+3/4,z+1/2
56 x+3/4,y+1/4,-z+1/2
57 z,x+1/2,y+1/2
58 -z,-x+1/2,-y+1/2
59 z,-x+3/4,-y+3/4
60 -z,x+1/4,y+1/4
61 -z+1/4,x+1/2,-y+3/4
62 z+3/4,-x+1/2,y+1/4
63 -z+1/4,-x+3/4,y+1/2
64 z+3/4,x+1/4,-y+1/2
65 y,z+1/2,x+1/2
66 -y,-z+1/2,-x+1/2
67 y,-z+3/4,-x+3/4
68 -y,z+1/4,x+1/4
69 -y+1/4,z+1/2,-x+3/4
70 y+3/4,-z+1/2,x+1/4
71 -y+1/4,-z+3/4,x+1/2
72 y+3/4,z+1/4,-x+1/2
73 x,z+1/2,y+1/2
74 -x,-z+1/2,-y+1/2
75 x,-z+3/4,-y+3/4
76 -x,z+1/4,y+1/4
77 -x+1/4,z+1/2,-y+3/4
78 x+3/4,-z+1/2,y+1/4
79 -x+1/4,-z+3/4,y+1/2
80 x+3/4,z+1/4,-y+1/2
81 y,x+1/2,z+1/2
82 -y,-x+1/2,-z+1/2
83 y,-x+3/4,-z+3/4
84 -y,x+1/4,z+1/4
85 -y+1/4,x+1/2,-z+3/4
86 y+3/4,-x+1/2,z+1/4
87 -y+1/4,-x+3/4,z+1/2
88 y+3/4,x+1/4,-z+1/2
89 z,y+1/2,x+1/2
90 -z,-y+1/2,-x+1/2
91 z,-y+3/4,-x+3/4
92 -z,y+1/4,x+1/4
93 -z+1/4,y+1/2,-x+3/4
94 z+3/4,-y+1/2,x+1/4
95 -z+1/4,-y+3/4,x+1/2
96 z+3/4,y+1/4,-x+1/2
97 x+1/2,y,z+1/2
98 -x+1/2,-y,-z+1/2
99 x+1/2,-y+1/4,-z+3/4
100 -x+1/2,y+3/4,z+1/4
101 -x+3/4,y,-z+3/4
102 x+1/4,-y,z+1/4
103 -x+3/4,-y+1/4,z+1/2
104 x+1/4,y+3/4,-z+1/2
105 z+1/2,x,y+1/2
106 -z+1/2,-x,-y+1/2
107 z+1/2,-x+1/4,-y+3/4
108 -z+1/2,x+3/4,y+1/4
109 -z+3/4,x,-y+3/4
110 z+1/4,-x,y+1/4
111 -z+3/4,-x+1/4,y+1/2
112 z+1/4,x+3/4,-y+1/2
113 y+1/2,z,x+1/2
114 -y+1/2,-z,-x+1/2
115 y+1/2,-z+1/4,-x+3/4
116 -y+1/2,z+3/4,x+1/4
117 -y+3/4,z,-x+3/4
118 y+1/4,-z,x+1/4
119 -y+3/4,-z+1/4,x+1/2
120 y+1/4,z+3/4,-x+1/2
121 x+1/2,z,y+1/2
122 -x+1/2,-z,-y+1/2
123 x+1/2,-z+1/4,-y+3/4
124 -x+1/2,z+3/4,y+1/4
125 -x+3/4,z,-y+3/4
126 x+1/4,-z,y+1/4
127 -x+3/4,-z+1/4,y+1/2
128 x+1/4,z+3/4,-y+1/2
129 y+1/2,x,z+1/2
130 -y+1/2,-x,-z+1/2
131 y+1/2,-x+1/4,-z+3/4
132 -y+1/2,x+3/4,z+1/4
133 -y+3/4,x,-z+3/4
134 y+1/4,-x,z+1/4
135 -y+3/4,-x+1/4,z+1/2
136 y+1/4,x+3/4,-z+1/2
137 z+1/2,y,x+1/2
138 -z+1/2,-y,-x+1/2
139 z+1/2,-y+1/4,-x+3/4
140 -z+1/2,y+3/4,x+1/4
141 -z+3/4,y,-x+3/4
142 z+1/4,-y,x+1/4
143 -z+3/4,-y+1/4,x+1/2
144 z+1/4,y+3/4,-x+1/2
145 x+1/2,y+1/2,z
146 -x+1/2,-y+1/2,-z
147 x+1/2,-y+3/4,-z+1/4
148 -x+1/2,y+1/4,z+3/4
149 -x+3/4,y+1/2,-z+1/4
150 x+1/4,-y+1/2,z+3/4
151 -x+3/4,-y+3/4,z
152 x+1/4,y+1/4,-z
153 z+1/2,x+1/2,y
154 -z+1/2,-x+1/2,-y
155 z+1/2,-x+3/4,-y+1/4
156 -z+1/2,x+1/4,y+3/4
157 -z+3/4,x+1/2,-y+1/4
158 z+1/4,-x+1/2,y+3/4
159 -z+3/4,-x+3/4,y
160 z+1/4,x+1/4,-y
161 y+1/2,z+1/2,x
162 -y+1/2,-z+1/2,-x
163 y+1/2,-z+3/4,-x+1/4
164 -y+1/2,z+1/4,x+3/4
165 -y+3/4,z+1/2,-x+1/4
166 y+1/4,-z+1/2,x+3/4
167 -y+3/4,-z+3/4,x
168 y+1/4,z+1/4,-x
169 x+1/2,z+1/2,y
170 -x+1/2,-z+1/2,-y
171 x+1/2,-z+3/4,-y+1/4
172 -x+1/2,z+1/4,y+3/4
173 -x+3/4,z+1/2,-y+1/4
174 x+1/4,-z+1/2,y+3/4
175 -x+3/4,-z+3/4,y
176 x+1/4,z+1/4,-y
177 y+1/2,x+1/2,z
178 -y+1/2,-x+1/2,-z
179 y+1/2,-x+3/4,-z+1/4
180 -y+1/2,x+1/4,z+3/4
181 -y+3/4,x+1/2,-z+1/4
182 y+1/4,-x+1/2,z+3/4
183 -y+3/4,-x+3/4,z
184 y+1/4,x+1/4,-z
185 z+1/2,y+1/2,x
186 -z+1/2,-y+1/2,-x
187 z+1/2,-y+3/4,-x+1/4
188 -z+1/2,y+1/4,x+3/4
189 -z+3/4,y+1/2,-x+1/4
190 z+1/4,-y+1/2,x+3/4
191 -z+3/4,-y+3/4,x
192 z+1/4,y+1/4,-x

loop_
_atom_site_label
_atom_site_type_symbol
_atom_site_fract_x
_atom_site_fract_y
_atom_site_fract_z
_atom_site_U_iso_or_equiv
_atom_site_symmetry_multiplicity
_atom_site_Wyckoff_symbol
_atom_site_occupancy
Ho1 Ho 0.625 0.625 0.625 . . . 1.0
Co2 Co 0.0 0.0 0.0 . . . 0.5
Ni3 Ni 0.0 0.0 0.0 . . . 0.5

