data_00-058-0632
# Copyright 2025 International Centre for Diffraction Data. All rights reserved.

_audit_creation_date                  2025-07-04
_audit_creation_method                'Generated by PDF-5+ 2025 4.25.0.2'

_chemical_name_systematic             'Strontium Lanthanum Vanadium Germanium Oxide'
_chemical_formula_moiety              'Sr2 La V Ge O8'
_chemical_formula_sum                 'Ge La O8 Sr2 V'
_chemical_formula_weight              565.71

# Atomic parameters are cross-referenced from PDF entry 04-017-4095

_cell_length_a                        5.62019(3)
_cell_length_b                        5.62019(3)
_cell_length_c                        19.8463(2)
_cell_angle_alpha                     90
_cell_angle_beta                      90
_cell_angle_gamma                     120
_cell_formula_units_Z                 3
_cell_volume                          542.89
_symmetry_cell_setting                hexagonal
_symmetry_space_group_name_H-M        R-3m
_symmetry_Int_Tables_number           166

loop_
_symmetry_equiv_pos_site_id
_symmetry_equiv_pos_as_xyz
1 x,y,z
2 -x,-y,-z
3 -y,x-y,z
4 y,-x+y,-z
5 -x+y,-x,z
6 x-y,x,-z
7 -y,-x,z
8 y,x,-z
9 x,x-y,z
10 -x,-x+y,-z
11 -x+y,y,z
12 x-y,-y,-z
13 x+2/3,y+1/3,z+1/3
14 -x+2/3,-y+1/3,-z+1/3
15 -y+2/3,x-y+1/3,z+1/3
16 y+2/3,-x+y+1/3,-z+1/3
17 -x+y+2/3,-x+1/3,z+1/3
18 x-y+2/3,x+1/3,-z+1/3
19 -y+2/3,-x+1/3,z+1/3
20 y+2/3,x+1/3,-z+1/3
21 x+2/3,x-y+1/3,z+1/3
22 -x+2/3,-x+y+1/3,-z+1/3
23 -x+y+2/3,y+1/3,z+1/3
24 x-y+2/3,-y+1/3,-z+1/3
25 x+1/3,y+2/3,z+2/3
26 -x+1/3,-y+2/3,-z+2/3
27 -y+1/3,x-y+2/3,z+2/3
28 y+1/3,-x+y+2/3,-z+2/3
29 -x+y+1/3,-x+2/3,z+2/3
30 x-y+1/3,x+2/3,-z+2/3
31 -y+1/3,-x+2/3,z+2/3
32 y+1/3,x+2/3,-z+2/3
33 x+1/3,x-y+2/3,z+2/3
34 -x+1/3,-x+y+2/3,-z+2/3
35 -x+y+1/3,y+2/3,z+2/3
36 x-y+1/3,-y+2/3,-z+2/3

loop_
_atom_site_label
_atom_site_type_symbol
_atom_site_fract_x
_atom_site_fract_y
_atom_site_fract_z
_atom_site_U_iso_or_equiv
_atom_site_symmetry_multiplicity
_atom_site_Wyckoff_symbol
_atom_site_occupancy
La1 La 0.0 0.0 0.0 0.0488 3 a 0.737
Sr2 Sr 0.0 0.0 0.0 0.0488 3 a 0.263
Sr3 Sr 0.0 0.0 0.20279 0.0238 6 c 0.869
La4 La 0.0 0.0 0.20279 0.0238 6 c 0.131
Ge5 Ge 0.0 0.0 0.4051 0.0327 6 c 0.5
V6 V 0.0 0.0 0.4051 0.0327 6 c 0.5
O7 O 0.0 0.0 0.3208 0.0637 6 c 1.0
O8 O 0.8274 0.1726 0.4344 0.0307 18 h 1.0

