data_00-066-0134
# Copyright 2025 International Centre for Diffraction Data. All rights reserved.

_audit_creation_date                  2025-07-06
_audit_creation_method                'Generated by PDF-5+ 2025 4.25.0.2'

_chemical_name_systematic             'Dysprosium Tantalum Oxide'
_chemical_formula_moiety              'Dy3 Ta O7'
_chemical_formula_sum                 'Dy3 O7 Ta'
_chemical_formula_weight              780.44

_cell_length_a                        10.5453(2)
_cell_length_b                        7.4583(1)
_cell_length_c                        7.4963(1)
_cell_angle_alpha                     90.0
_cell_angle_beta                      90.0
_cell_angle_gamma                     90.0
_cell_formula_units_Z                 4
_cell_volume                          589.58
_symmetry_cell_setting                orthorhombic
_symmetry_space_group_name_H-M        C2221
_symmetry_Int_Tables_number           20

loop_
_symmetry_equiv_pos_site_id
_symmetry_equiv_pos_as_xyz
1 x,y,z
2 x,-y,-z
3 -x,-y,z+1/2
4 -x,y,-z+1/2
5 x+1/2,y+1/2,z
6 x+1/2,-y+1/2,-z
7 -x+1/2,-y+1/2,z+1/2
8 -x+1/2,y+1/2,-z+1/2

loop_
_atom_site_label
_atom_site_type_symbol
_atom_site_fract_x
_atom_site_fract_y
_atom_site_fract_z
_atom_site_U_iso_or_equiv
_atom_site_symmetry_multiplicity
_atom_site_Wyckoff_symbol
_atom_site_occupancy
Dy1 Dy 0.0 0.4957 0.25 . . . 1.0
Dy2 Dy 0.2377 0.2542 0.0027 . . . 1.0
Ta3 Ta 0.0 0.0175 0.25 . . . 1.0
O4 O 0.1044 0.243 0.302 . . . 1.0
O5 O 0.1299 0.8056 0.261 . . . 1.0
O6 O 0.1433 0.5 0.0 . . . 1.0
O7 O 0.1416 0.5 0.5 . . . 1.0
O8 O 0.1006 0.0 0.0 . . . 1.0

