data_00-058-0786
# Copyright 2025 International Centre for Diffraction Data. All rights reserved.

_audit_creation_date                  2025-07-04
_audit_creation_method                'Generated by PDF-5+ 2025 4.25.0.2'

_chemical_name_systematic             'Holmium Calcium Germanium Oxide'
_chemical_formula_moiety              'Ho2 Ca ( Ge O3 )4'
_chemical_formula_sum                 'Ca Ge4 Ho2 O12'
_chemical_formula_weight              852.45

# Atomic parameters are cross-referenced from PDF entry 04-015-6157

_cell_length_a                        9.99176(4)
_cell_length_b                        9.99176(4)
_cell_length_c                        5.06810(2)
_cell_angle_alpha                     90
_cell_angle_beta                      90
_cell_angle_gamma                     90
_cell_formula_units_Z                 2
_cell_volume                          505.98
_symmetry_cell_setting                tetragonal
_symmetry_space_group_name_H-M        P4/nbm
_symmetry_Int_Tables_number           125

loop_
_symmetry_equiv_pos_site_id
_symmetry_equiv_pos_as_xyz
1 x,y,z
2 -x,-y,-z
3 -x,y+1/2,z
4 x,-y+1/2,-z
5 x+1/2,-y,z
6 -x+1/2,y,-z
7 -x+1/2,-y+1/2,z
8 x+1/2,y+1/2,-z
9 y,x,-z
10 -y,-x,z
11 -y,x+1/2,-z
12 y,-x+1/2,z
13 y+1/2,-x,-z
14 -y+1/2,x,z
15 -y+1/2,-x+1/2,-z
16 y+1/2,x+1/2,z

loop_
_atom_site_label
_atom_site_type_symbol
_atom_site_fract_x
_atom_site_fract_y
_atom_site_fract_z
_atom_site_U_iso_or_equiv
_atom_site_symmetry_multiplicity
_atom_site_Wyckoff_symbol
_atom_site_occupancy
Ca1 Ca 0.0 0.0 0.5 0.037 4 f 0.5
Ho2 Ho 0.0 0.0 0.5 0.037 4 f 0.5
Ho3 Ho 0.25 0.25 0.5 0.037 2 b 1.0
Ge4 Ge 0.52127 0.25 0.0 0.0293 8 k 1.0
O5 O -0.3712 0.3712 0.1568 0.0244 8 m 1.0
O6 O 0.1739 0.0618 0.2559 0.0244 16 n 1.0

