data_00-067-0310
# Copyright 2025 International Centre for Diffraction Data. All rights reserved.

_audit_creation_date                  2025-07-06
_audit_creation_method                'Generated by PDF-5+ 2025 4.25.0.2'

_chemical_name_systematic             'Barium Calcium Zinc Aluminum Oxide'
_chemical_formula_moiety              'Ca Ba Zn2 Al2 O7'
_chemical_formula_sum                 'Al2 Ba Ca O7 Zn2'
_chemical_formula_weight              474.12

_cell_length_a                        6.29387(3)
_cell_length_b                        6.29387(3)
_cell_length_c                        10.02733(69)
_cell_angle_alpha                     90.0
_cell_angle_beta                      90.0
_cell_angle_gamma                     120.0
_cell_formula_units_Z                 2
_cell_volume                          343.99
_symmetry_cell_setting                hexagonal
_symmetry_space_group_name_H-M        P63mc
_symmetry_Int_Tables_number           186

loop_
_symmetry_equiv_pos_site_id
_symmetry_equiv_pos_as_xyz
1 x,y,z
2 -y,x-y,z
3 -x+y,-x,z
4 -y,-x,z
5 x,x-y,z
6 -x+y,y,z
7 -x,-y,z+1/2
8 y,-x+y,z+1/2
9 x-y,x,z+1/2
10 y,x,z+1/2
11 -x,-x+y,z+1/2
12 x-y,-y,z+1/2

loop_
_atom_site_label
_atom_site_type_symbol
_atom_site_fract_x
_atom_site_fract_y
_atom_site_fract_z
_atom_site_B_iso_or_equiv
_atom_site_symmetry_multiplicity
_atom_site_Wyckoff_symbol
_atom_site_occupancy
Ca1 Ca 0.6666667 0.3333333 0.87112 0.923 . . 1.0
Ba2 Ba 0.6666667 0.3333333 0.5 1.415 . . 1.0
Al3 Al 0.0 0.0 0.42901 4.4 . . 0.5
Zn4 Zn 0.0 0.0 0.42901 4.4 . . 0.5
Al5 Al 0.17366 0.82634 0.68011 . . . 0.5
Zn6 Zn 0.17366 0.82634 0.68011 . . . 0.5
O7 O 0.50013 0.49987 0.72548 2.05 . . 1.0
O8 O 0.0 0.0 0.264 1.44 . . 1.0
O9 O 0.159 0.841 0.48724 1.94 . . 1.0

