data_00-061-0614
# Copyright 2025 International Centre for Diffraction Data. All rights reserved.

_audit_creation_date                  2025-07-04
_audit_creation_method                'Generated by PDF-5+ 2025 4.25.0.2'

_chemical_name_systematic             'Gadolinium Yttrium Niobium Oxide'
_chemical_formula_moiety              'Gd1.8 Y1.2 Nb O7'
_chemical_formula_sum                 'Gd1.8 Nb O7 Y1.2'
_chemical_formula_weight              594.64

_cell_length_a                        10.55642(23)
_cell_length_b                        7.47822(14)
_cell_length_c                        7.51625(14)
_cell_angle_alpha                     90.0
_cell_angle_beta                      90.0
_cell_angle_gamma                     90.0
_cell_formula_units_Z                 4
_cell_volume                          593.36
_symmetry_cell_setting                orthorhombic
_symmetry_space_group_name_H-M        C2221
_symmetry_Int_Tables_number           20

loop_
_symmetry_equiv_pos_site_id
_symmetry_equiv_pos_as_xyz
1 x,y,z
2 x,-y,-z
3 -x,-y,z+1/2
4 -x,y,-z+1/2
5 x+1/2,y+1/2,z
6 x+1/2,-y+1/2,-z
7 -x+1/2,-y+1/2,z+1/2
8 -x+1/2,y+1/2,-z+1/2

loop_
_atom_site_label
_atom_site_type_symbol
_atom_site_fract_x
_atom_site_fract_y
_atom_site_fract_z
_atom_site_U_iso_or_equiv
_atom_site_symmetry_multiplicity
_atom_site_Wyckoff_symbol
_atom_site_occupancy
Gd1 Gd 0.0 0.5107 0.25 0.02797 . . 0.751
Y2 Y 0.0 0.5107 0.25 0.02797 . . 0.249
Gd3 Gd 0.23363 0.23658 0.0053 0.02797 . . 0.523
Y4 Y 0.23363 0.23658 0.00536 0.02797 . . 0.477
Nb5 Nb 0.0 -0.0035 0.25 0.0048 . . 1.0
O6 O 0.1361 0.1728 0.2895 0.0205 . . 1.0
O7 O 0.1109 -0.2167 0.2714 0.0205 . . 1.0
O8 O 0.1222 0.5 0.0 0.0205 . . 1.0
O9 O 0.1238 0.5 0.5 0.0205 . . 1.0
O10 O 0.0542 0.0 0.0 0.0205 . . 1.0

