data_00-063-0332
# Copyright 2025 International Centre for Diffraction Data. All rights reserved.

_audit_creation_date                  2025-07-06
_audit_creation_method                'Generated by PDF-5+ 2025 4.25.0.2'

_chemical_name_systematic             'Iron Antimony Tellurium'
_chemical_formula_moiety              'Fe Sb2.20 Te0.80'
_chemical_formula_structural          'Fe ( Sb2.20 Te0.80 )'
_chemical_formula_sum                 'Fe Sb2.2 Te0.8'
_chemical_formula_weight              425.80

_cell_length_a                        9.111198(31)
_cell_length_b                        9.111198(31)
_cell_length_c                        9.111198(31)
_cell_angle_alpha                     90.0
_cell_angle_beta                      90.0
_cell_angle_gamma                     90.0
_cell_formula_units_Z                 8
_cell_volume                          756.36
_symmetry_cell_setting                cubic
_symmetry_space_group_name_H-M        Im-3
_symmetry_Int_Tables_number           204

loop_
_symmetry_equiv_pos_site_id
_symmetry_equiv_pos_as_xyz
1 x,y,z
2 -x,-y,-z
3 z,x,y
4 -z,-x,-y
5 y,z,x
6 -y,-z,-x
7 x,-y,-z
8 -x,y,z
9 z,-x,-y
10 -z,x,y
11 y,-z,-x
12 -y,z,x
13 -x,y,-z
14 x,-y,z
15 -z,x,-y
16 z,-x,y
17 -y,z,-x
18 y,-z,x
19 -x,-y,z
20 x,y,-z
21 -z,-x,y
22 z,x,-y
23 -y,-z,x
24 y,z,-x
25 x+1/2,y+1/2,z+1/2
26 -x+1/2,-y+1/2,-z+1/2
27 z+1/2,x+1/2,y+1/2
28 -z+1/2,-x+1/2,-y+1/2
29 y+1/2,z+1/2,x+1/2
30 -y+1/2,-z+1/2,-x+1/2
31 x+1/2,-y+1/2,-z+1/2
32 -x+1/2,y+1/2,z+1/2
33 z+1/2,-x+1/2,-y+1/2
34 -z+1/2,x+1/2,y+1/2
35 y+1/2,-z+1/2,-x+1/2
36 -y+1/2,z+1/2,x+1/2
37 -x+1/2,y+1/2,-z+1/2
38 x+1/2,-y+1/2,z+1/2
39 -z+1/2,x+1/2,-y+1/2
40 z+1/2,-x+1/2,y+1/2
41 -y+1/2,z+1/2,-x+1/2
42 y+1/2,-z+1/2,x+1/2
43 -x+1/2,-y+1/2,z+1/2
44 x+1/2,y+1/2,-z+1/2
45 -z+1/2,-x+1/2,y+1/2
46 z+1/2,x+1/2,-y+1/2
47 -y+1/2,-z+1/2,x+1/2
48 y+1/2,z+1/2,-x+1/2

loop_
_atom_site_label
_atom_site_type_symbol
_atom_site_fract_x
_atom_site_fract_y
_atom_site_fract_z
_atom_site_U_iso_or_equiv
_atom_site_symmetry_multiplicity
_atom_site_Wyckoff_symbol
_atom_site_occupancy
Fe1 Fe 0.25 0.25 0.25 0.0112 8 c 1.0
Sb2 Sb 0.0 0.15786 0.33159 0.01463 24 g 0.73333
Te3 Te 0.0 0.15786 0.33159 0.01463 24 g 0.26667

