data_00-063-0777
# Copyright 2025 International Centre for Diffraction Data. All rights reserved.

_audit_creation_date                  2025-07-06
_audit_creation_method                'Generated by PDF-5+ 2025 4.25.0.2'

_chemical_name_systematic             'Cesium Zinc Silicon Oxide'
_chemical_name_common                 'dicesium zinc pentasilicate'
_chemical_formula_moiety              'Cs2 Zn Si5 O12'
_chemical_formula_sum                 'Cs2 O12 Si5 Zn'
_chemical_formula_weight              663.61

_cell_length_a                        13.6415(9)
_cell_length_b                        13.6233(8)
_cell_length_c                        13.6653(9)
_cell_angle_alpha                     90.0
_cell_angle_beta                      90.0
_cell_angle_gamma                     90.0
_cell_formula_units_Z                 8
_cell_volume                          2539.59
_symmetry_cell_setting                orthorhombic
_symmetry_space_group_name_H-M        Pbca
_symmetry_Int_Tables_number           61

loop_
_symmetry_equiv_pos_site_id
_symmetry_equiv_pos_as_xyz
1 x,y,z
2 -x,-y,-z
3 x+1/2,-y+1/2,-z
4 -x+1/2,y+1/2,z
5 -x,y+1/2,-z+1/2
6 x,-y+1/2,z+1/2
7 -x+1/2,-y,z+1/2
8 x+1/2,y,-z+1/2

loop_
_atom_site_label
_atom_site_type_symbol
_atom_site_fract_x
_atom_site_fract_y
_atom_site_fract_z
_atom_site_U_iso_or_equiv
_atom_site_symmetry_multiplicity
_atom_site_Wyckoff_symbol
_atom_site_occupancy
Cs1 Cs 0.118 0.117 0.1105 . . . 1.0
Cs2 Cs 0.3624 0.3648 0.3558 . . . 1.0
Si3 Si 0.381 0.86 0.89 . . . 0.85
Zn4 Zn 0.381 0.86 0.89 . . . 0.15
Si5 Si 0.126 0.659 0.586 . . . 0.15
Zn6 Zn 0.126 0.659 0.586 . . . 0.85
Si7 Si 0.585 0.132 0.677 . . . 1.0
Si8 Si 0.671 0.564 0.124 . . . 1.0
Si9 Si 0.902 0.385 0.832 . . . 1.0
Si10 Si 0.857 0.907 0.387 . . . 1.0
O11 O 0.469 0.357 0.171 . . . 1.0
O12 O 0.114 0.482 0.315 . . . 1.0
O13 O 0.387 0.13 0.454 . . . 1.0
O14 O 0.709 0.446 0.631 . . . 1.0
O15 O 0.637 0.719 0.379 . . . 1.0
O16 O 0.377 0.65 0.712 . . . 1.0
O17 O 0.98 0.896 0.661 . . . 1.0
O18 O 0.654 0.976 0.88 . . . 1.0
O19 O 0.891 0.637 0.991 . . . 1.0
O20 O 0.238 0.901 0.108 . . . 1.0
O21 O 0.125 0.226 0.883 . . . 1.0
O22 O 0.861 0.12 0.222 . . . 1.0

