data_00-068-0556
# Copyright 2025 International Centre for Diffraction Data. All rights reserved.

_audit_creation_date                  2025-07-06
_audit_creation_method                'Generated by PDF-5+ 2025 4.25.0.2'

_chemical_name_systematic             'Samarium Nickel Silicide'
_chemical_formula_moiety              'Sm Ni7 Si6'
_chemical_formula_sum                 'Ni7 Si6 Sm'
_chemical_formula_weight              729.73

_cell_length_a                        7.8254(1)
_cell_length_b                        7.8254(1)
_cell_length_c                        11.1824(2)
_cell_angle_alpha                     90.0
_cell_angle_beta                      90.0
_cell_angle_gamma                     90.0
_cell_formula_units_Z                 4
_cell_volume                          684.78
_symmetry_cell_setting                tetragonal
_symmetry_space_group_name_H-M        P4/nbm
_symmetry_Int_Tables_number           125

loop_
_symmetry_equiv_pos_site_id
_symmetry_equiv_pos_as_xyz
1 x,y,z
2 -x,-y,-z
3 -x,y+1/2,z
4 x,-y+1/2,-z
5 x+1/2,-y,z
6 -x+1/2,y,-z
7 -x+1/2,-y+1/2,z
8 x+1/2,y+1/2,-z
9 y,x,-z
10 -y,-x,z
11 -y,x+1/2,-z
12 y,-x+1/2,z
13 y+1/2,-x,-z
14 -y+1/2,x,z
15 -y+1/2,-x+1/2,-z
16 y+1/2,x+1/2,z

loop_
_atom_site_label
_atom_site_type_symbol
_atom_site_fract_x
_atom_site_fract_y
_atom_site_fract_z
_atom_site_U_iso_or_equiv
_atom_site_symmetry_multiplicity
_atom_site_Wyckoff_symbol
_atom_site_occupancy
Sm1 Sm 0.25 0.25 0.5 . . . 1.0
Sm2 Sm 0.25 0.25 0.0 . . . 1.0
Ni3 Ni 0.0732 0.5732 0.6231 . . . 1.0
Ni4 Ni 0.3796 0.8796 0.0716 . . . 1.0
Si5 Si 0.0801 0.5801 0.8677 . . . 1.0
Si6 Si 0.25 0.75 0.25 . . . 1.0
Ni7 Ni 0.3096 0.0488 0.25 . . . 0.5
Si8 Si 0.3096 0.0488 0.25 . . . 0.5
Ni9 Ni 0.3695 0.8695 0.4214 . . . 0.5
Si10 Si 0.3695 0.8695 0.4214 . . . 0.5

