data_00-063-0020
# Copyright 2025 International Centre for Diffraction Data. All rights reserved.

_audit_creation_date                  2025-07-06
_audit_creation_method                'Generated by PDF-5+ 2025 4.25.0.2'

_chemical_name_systematic             'Lithium Rhodium Oxide'
_chemical_formula_moiety              'Li2 Rh O3'
_chemical_formula_sum                 'Li2 O3 Rh'
_chemical_formula_weight              164.79

_cell_length_a                        5.1198(1)
_cell_length_b                        8.8495(2)
_cell_length_c                        5.1032(1)
_cell_angle_alpha                     90.0
_cell_angle_beta                      90
_cell_angle_gamma                     90.000(2)
_cell_formula_units_Z                 4
_cell_volume                          217.79
_symmetry_cell_setting                monoclinic
_symmetry_space_group_name_H-M        C12/m1
_symmetry_Int_Tables_number           12

loop_
_symmetry_equiv_pos_site_id
_symmetry_equiv_pos_as_xyz
1 x,y,z
2 -x,-y,-z
3 x,-y,z
4 -x,y,-z
5 x+1/2,y+1/2,z
6 -x+1/2,-y+1/2,-z
7 x+1/2,-y+1/2,z
8 -x+1/2,y+1/2,-z

loop_
_atom_site_label
_atom_site_type_symbol
_atom_site_fract_x
_atom_site_fract_y
_atom_site_fract_z
_atom_site_U_iso_or_equiv
_atom_site_symmetry_multiplicity
_atom_site_Wyckoff_symbol
_atom_site_occupancy
Rh1 Rh 0.0 0.33333 0.0 . . . 0.8642
Li2 Li 0.0 0.33333 0.0 . . . 0.1358
Li3 Li 0.0 0.0 0.0 . . . 0.679
Li4 Li 0.0 0.8207 0.5 . . . 1.0
O5 O 0.2649 0.0 0.7736 . . . 1.0
O6 O 0.2615 0.32043 0.76022 . . . 1.0
Li7 Li 0.0 0.5 0.5 . . . 1.0
Rh8 Rh 0.0 0.0 0.0 . . . 0.321

