data_00-064-0420
# Copyright 2025 International Centre for Diffraction Data. All rights reserved.

_audit_creation_date                  2025-07-06
_audit_creation_method                'Generated by PDF-5+ 2025 4.25.0.2'

_chemical_name_systematic             'Dysprosium Copper Telluride'
_chemical_formula_moiety              'Dy Cu Te2'
_chemical_formula_sum                 'Cu Dy Te2'
_chemical_formula_weight              481.25

_cell_length_a                        8.5994(8)
_cell_length_b                        8.5994(8)
_cell_length_c                        13.812(2)
_cell_angle_alpha                     90.0
_cell_angle_beta                      90.0
_cell_angle_gamma                     120.0
_cell_formula_units_Z                 8
_cell_volume                          884.55
_symmetry_cell_setting                hexagonal
_symmetry_space_group_name_H-M        P-3m1
_symmetry_Int_Tables_number           164

loop_
_symmetry_equiv_pos_site_id
_symmetry_equiv_pos_as_xyz
1 x,y,z
2 -x,-y,-z
3 -y,x-y,z
4 y,-x+y,-z
5 -x+y,-x,z
6 x-y,x,-z
7 -y,-x,z
8 y,x,-z
9 x,x-y,z
10 -x,-x+y,-z
11 -x+y,y,z
12 x-y,-y,-z

loop_
_atom_site_label
_atom_site_type_symbol
_atom_site_fract_x
_atom_site_fract_y
_atom_site_fract_z
_atom_site_B_iso_or_equiv
_atom_site_symmetry_multiplicity
_atom_site_Wyckoff_symbol
_atom_site_occupancy
Dy1 Dy 0.0 0.0 0.2601 1.0 2 c 1.0
Dy2 Dy 0.5031 0.4969 0.2461 1.0 6 i 1.0
Cu3 Cu 0.3333 0.6667 0.9293 1.0 2 d 1.0
Cu4 Cu 0.8341 0.1659 0.4299 1.0 6 i 0.72
Cu5 Cu 0.1692 0.8308 0.0705 1.0 6 i 0.28
Te6 Te 0.3333 0.6667 0.1215 1.0 2 d 1.0
Te7 Te 0.1714 0.8286 0.3797 1.0 6 i 1.0
Te8 Te 0.1621 0.8379 0.8812 1.0 6 i 1.0
Te9 Te 0.3333 0.6667 0.6174 1.0 2 d 1.0

