data_00-061-0022
# Copyright 2025 International Centre for Diffraction Data. All rights reserved.

_audit_creation_date                  2025-07-04
_audit_creation_method                'Generated by PDF-5+ 2025 4.25.0.2'

_chemical_name_systematic             'Lead Hafnium Titanium Oxide'
_chemical_name_common                 'lead hafnate titanate'
_chemical_formula_moiety              'Pb Hf0.4 Ti0.6 O3'
_chemical_formula_sum                 'Hf0.4 O3 Pb Ti0.6'
_chemical_formula_weight              355.30

_cell_length_a                        4.0120(10)
_cell_length_b                        4.0120(10)
_cell_length_c                        4.1000(10)
_cell_angle_alpha                     90.0
_cell_angle_beta                      90.0
_cell_angle_gamma                     90.0
_cell_formula_units_Z                 1
_cell_volume                          65.99
_symmetry_cell_setting                tetragonal
_symmetry_space_group_name_H-M        P4mm
_symmetry_Int_Tables_number           99

loop_
_symmetry_equiv_pos_site_id
_symmetry_equiv_pos_as_xyz
1 x,y,z
2 -x,-y,z
3 -x,y,z
4 x,-y,z
5 y,x,z
6 -y,-x,z
7 -y,x,z
8 y,-x,z

loop_
_atom_site_label
_atom_site_type_symbol
_atom_site_fract_x
_atom_site_fract_y
_atom_site_fract_z
_atom_site_U_iso_or_equiv
_atom_site_symmetry_multiplicity
_atom_site_Wyckoff_symbol
_atom_site_occupancy
Pb1 Pb 0.0 0.0 0.0 0.016 . . 1.0
Hf2 Hf 0.5 0.5 0.535 0.008 . . 0.42
Ti3 Ti 0.5 0.5 0.495 0.008 . . 0.58
O4 O 0.5 0.5 0.079 0.018 . . 1.0
O5 O 0.5 0.0 0.597 0.018 . . 1.0

