data_00-060-0185
# Copyright 2025 International Centre for Diffraction Data. All rights reserved.

_audit_creation_date                  2025-07-04
_audit_creation_method                'Generated by PDF-5+ 2025 4.25.0.2'

_chemical_name_systematic             'Dysprosium Iron Silicon'
_chemical_formula_moiety              'Dy1.2 Fe4 Si9.8'
_chemical_formula_sum                 'Dy1.2 Fe4 Si9.8'
_chemical_formula_weight              693.62

# Atomic parameters are cross-referenced from PDF entry 04-013-1532

_cell_length_a                        3.9348(6)
_cell_length_b                        3.9348(6)
_cell_length_c                        15.268(3)
_cell_angle_alpha                     90
_cell_angle_beta                      90
_cell_angle_gamma                     120
_cell_formula_units_Z                 2
_cell_volume                          204.72
_symmetry_cell_setting                hexagonal
_symmetry_space_group_name_H-M        P63/mmc
_symmetry_Int_Tables_number           194

loop_
_symmetry_equiv_pos_site_id
_symmetry_equiv_pos_as_xyz
1 x,y,z
2 -x,-y,-z
3 -y,x-y,z
4 y,-x+y,-z
5 -x+y,-x,z
6 x-y,x,-z
7 -y,-x,z
8 y,x,-z
9 x,x-y,z
10 -x,-x+y,-z
11 -x+y,y,z
12 x-y,-y,-z
13 -x,-y,z+1/2
14 x,y,-z+1/2
15 y,-x+y,z+1/2
16 -y,x-y,-z+1/2
17 x-y,x,z+1/2
18 -x+y,-x,-z+1/2
19 y,x,z+1/2
20 -y,-x,-z+1/2
21 -x,-x+y,z+1/2
22 x,x-y,-z+1/2
23 x-y,-y,z+1/2
24 -x+y,y,-z+1/2

loop_
_atom_site_label
_atom_site_type_symbol
_atom_site_fract_x
_atom_site_fract_y
_atom_site_fract_z
_atom_site_U_iso_or_equiv
_atom_site_symmetry_multiplicity
_atom_site_Wyckoff_symbol
_atom_site_occupancy
Dy1 Dy 0.66666 0.33333 0.25 0.00608 2 d 0.583
Fe2 Fe 0.33333 0.66666 0.3925 0.00644 4 f 1.0
Si3 Si 0.66666 0.33333 0.4544 0.0069 4 f 1.0
Si4 Si 0.0 0.0 0.633 0.00777 4 e 1.0
Si5 Si 0.0652 0.5326 0.25 0.01582 6 h 0.323

loop_
_atom_site_aniso_label
_atom_site_aniso_U_11
_atom_site_aniso_U_12
_atom_site_aniso_U_13
_atom_site_aniso_U_22
_atom_site_aniso_U_23
_atom_site_aniso_U_33
Dy1 0.0062 0.00308 0.0 0.0062 0.0 0.0058
Fe2 0.0063 0.00313 0.0 0.0063 0.0 0.0067
Si3 0.0072 0.0036 0.0 0.0072 0.0 0.0063
Si4 0.0072 0.0036 0.0 0.0072 0.0 0.0089
Si5 0.027 0.0134 0.0 0.019 0.0 0.004

