data_00-045-0550
# Copyright 2025 International Centre for Diffraction Data. All rights reserved.

_audit_creation_date                  2025-07-04
_audit_creation_method                'Generated by PDF-5+ 2025 4.25.0.2'

_chemical_name_systematic             'Lithium Calcium Phosphate'
_chemical_formula_moiety              'Ca10 Li ( P O4 )7'
_chemical_formula_sum                 'Ca10 Li O28 P7'
_chemical_formula_weight              1072.51
_chemical_melting_point               1773.0

# Atomic parameters are cross-referenced from PDF entry 04-016-7539

_cell_length_a                        10.4203(1)
_cell_length_b                        10.4203(1)
_cell_length_c                        37.38951(1)
_cell_angle_alpha                     90
_cell_angle_beta                      90
_cell_angle_gamma                     120
_cell_formula_units_Z                 6
_cell_volume                          3515.93
_symmetry_cell_setting                hexagonal
_symmetry_space_group_name_H-M        R3c
_symmetry_Int_Tables_number           161

loop_
_symmetry_equiv_pos_site_id
_symmetry_equiv_pos_as_xyz
1 x,y,z
2 -y,x-y,z
3 -x+y,-x,z
4 -y,-x,z+1/2
5 x,x-y,z+1/2
6 -x+y,y,z+1/2
7 x+2/3,y+1/3,z+1/3
8 -y+2/3,x-y+1/3,z+1/3
9 -x+y+2/3,-x+1/3,z+1/3
10 -y+2/3,-x+1/3,z+5/6
11 x+2/3,x-y+1/3,z+5/6
12 -x+y+2/3,y+1/3,z+5/6
13 x+1/3,y+2/3,z+2/3
14 -y+1/3,x-y+2/3,z+2/3
15 -x+y+1/3,-x+2/3,z+2/3
16 -y+1/3,-x+2/3,z+1/6
17 x+1/3,x-y+2/3,z+1/6
18 -x+y+1/3,y+2/3,z+1/6

loop_
_atom_site_label
_atom_site_type_symbol
_atom_site_fract_x
_atom_site_fract_y
_atom_site_fract_z
_atom_site_B_iso_or_equiv
_atom_site_symmetry_multiplicity
_atom_site_Wyckoff_symbol
_atom_site_occupancy
Ca1 Ca 0.7257 0.8603 0.4316 0.2 18 b 0.94
Li2 Li 0.7257 0.8603 0.4316 0.2 18 b 0.06
Ca3 Ca 0.6182 0.8242 0.2317 0.8 18 b 1.0
Ca4 Ca 0.1208 0.267 0.3261 1.7 18 b 1.0
Li5 Li 0.0 0.0 0.191 3.0 6 a 0.87
Ca6 Ca 0.0 0.0 0.166 3.0 6 a 0.13
Ca7 Ca 0.0 0.0 0.0 1.3 6 a 1.0
P8 P 0.0 0.0 0.2656 1.5 6 a 1.0
P9 P 0.6896 0.865 0.1343 1.0 18 b 1.0
P10 P 0.6532 0.8474 0.0327 0.8 18 b 1.0
O11 O 0.0 0.0 0.31 2.0 6 a 1.0
O12 O 0.008 0.861 0.2555 1.3 18 b 1.0
O13 O 0.728 0.913 0.1743 1.9 18 b 1.0
O14 O 0.771 0.787 0.1214 2.0 18 b 1.0
O15 O 0.726 0.009 0.1131 0.3 18 b 1.0
O16 O 0.521 0.761 0.129 0.8 18 b 1.0
O17 O 0.599 0.951 0.0444 0.4 18 b 1.0
O18 O 0.573 0.692 0.0514 0.2 18 b 1.0
O19 O 0.821 0.919 0.0439 0.8 18 b 1.0
O20 O 0.628 0.827 0.9922 1.2 18 b 1.0

