data_00-057-0841
# Copyright 2025 International Centre for Diffraction Data. All rights reserved.

_audit_creation_date                  2025-07-04
_audit_creation_method                'Generated by PDF-5+ 2025 4.25.0.2'

_chemical_name_systematic             'Potassium Samarium Molybdenum Oxide Phosphate'
_chemical_formula_moiety              'K2 Sm ( P O4 ) ( Mo O4 )'
_chemical_formula_sum                 'K2 Mo O8 P Sm'
_chemical_formula_weight              483.48
_chemical_melting_point               1073.0

# Atomic parameters are cross-referenced from PDF entry 04-016-7761

_cell_length_a                        12.345(9)
_cell_length_b                        7.004(5)
_cell_length_c                        19.733(12)
_cell_angle_alpha                     90
_cell_angle_beta                      90
_cell_angle_gamma                     90
_cell_formula_units_Z                 8
_cell_volume                          1706.20
_symmetry_cell_setting                orthorhombic
_symmetry_space_group_name_H-M        Ibca
_symmetry_Int_Tables_number           73

loop_
_symmetry_equiv_pos_site_id
_symmetry_equiv_pos_as_xyz
1 x,y,z
2 -x,-y,-z
3 -x+1/2,-y,z+1/2
4 x+1/2,y,-z+1/2
5 -x,y+1/2,-z+1/2
6 x,-y+1/2,z+1/2
7 x+1/2,-y+1/2,-z
8 -x+1/2,y+1/2,z
9 x+1/2,y+1/2,z+1/2
10 -x+1/2,-y+1/2,-z+1/2
11 -x,-y+1/2,z
12 x,y+1/2,-z
13 -x+1/2,y,-z
14 x+1/2,-y,z
15 x,-y,-z+1/2
16 -x,y,z+1/2

loop_
_atom_site_label
_atom_site_type_symbol
_atom_site_fract_x
_atom_site_fract_y
_atom_site_fract_z
_atom_site_U_iso_or_equiv
_atom_site_symmetry_multiplicity
_atom_site_Wyckoff_symbol
_atom_site_occupancy
K1 K 0.17099 0.28431 0.09418 0.02333 16 f 1.0
Sm2 Sm 0.42384 0.5 0.25 0.0063 8 c 1.0
Mo3 Mo 0.5 0.25 0.08208 0.01213 8 e 1.0
P4 P 0.17826 0.5 0.25 0.0066 8 c 1.0
O5 O 0.0995 0.6698 0.26009 0.01117 16 f 1.0
O6 O 0.2522 0.524 0.18818 0.01133 16 f 1.0
O7 O 0.469 0.4533 0.13294 0.01773 16 f 1.0
O8 O 0.3879 0.1914 0.03256 0.02913 16 f 1.0

loop_
_atom_site_aniso_label
_atom_site_aniso_U_11
_atom_site_aniso_U_12
_atom_site_aniso_U_13
_atom_site_aniso_U_22
_atom_site_aniso_U_23
_atom_site_aniso_U_33
K1 0.0327 -0.0016 -0.0042 0.0226 -0.0018 0.0147
Sm2 0.0049 0.0 0.0 0.005 5.0E-5 0.009
Mo3 0.0142 0.00155 0.0 0.0153 0.0 0.0069
P4 0.0041 0.0 0.0 0.0042 1.0E-4 0.0115
O5 0.0065 0.0 -6.0E-4 0.0058 -0.0018 0.0212
O6 0.0085 -0.0026 -0.001 0.0139 0.0021 0.0116
O7 0.0228 0.0032 0.0029 0.0192 -0.0013 0.0112
O8 0.032 -0.0012 -0.0163 0.033 0.0016 0.0224

