data_00-066-0579
# Copyright 2025 International Centre for Diffraction Data. All rights reserved.

_audit_creation_date                  2025-07-06
_audit_creation_method                'Generated by PDF-5+ 2025 4.25.0.2'

_chemical_name_systematic             'Iron Titanium Lithium Oxide'
_chemical_formula_moiety              'Fe Li Ti O4'
_chemical_formula_sum                 'Fe Li O4 Ti'
_chemical_formula_weight              174.65

_cell_length_a                        8.9206(5)
_cell_length_b                        2.95958(33)
_cell_length_c                        10.7103(7)
_cell_angle_alpha                     90.0
_cell_angle_beta                      90.0
_cell_angle_gamma                     90.0
_cell_formula_units_Z                 4
_cell_volume                          282.77
_symmetry_cell_setting                orthorhombic
_symmetry_space_group_name_H-M        Pnma
_symmetry_Int_Tables_number           62

loop_
_symmetry_equiv_pos_site_id
_symmetry_equiv_pos_as_xyz
1 x,y,z
2 -x,-y,-z
3 x+1/2,-y+1/2,-z+1/2
4 -x+1/2,y+1/2,z+1/2
5 -x,y+1/2,-z
6 x,-y+1/2,z
7 -x+1/2,-y,z+1/2
8 x+1/2,y,-z+1/2

loop_
_atom_site_label
_atom_site_type_symbol
_atom_site_fract_x
_atom_site_fract_y
_atom_site_fract_z
_atom_site_U_iso_or_equiv
_atom_site_symmetry_multiplicity
_atom_site_Wyckoff_symbol
_atom_site_occupancy
Li1 Li 0.3409 0.25 0.3498 0.0109 . . 1.0
Fe2 Fe 0.0774 0.25 0.6344 0.01 . . 0.5
Fe3 Fe 0.0725 0.25 0.1313 0.0099 . . 0.5
Ti4 Ti 0.0774 0.25 0.6344 0.01 . . 0.5
Ti5 Ti 0.0725 0.25 0.1313 0.0099 . . 0.5
O6 O 0.8945 0.25 0.5201 0.0103 . . 1.0
O7 O 0.9996 0.25 0.2875 0.0102 . . 1.0
O8 O 0.3079 0.25 0.6299 0.0106 . . 1.0
O9 O 0.0676 0.25 0.9435 0.0112 . . 1.0

