data_00-064-0532
# Copyright 2025 International Centre for Diffraction Data. All rights reserved.

_audit_creation_date                  2025-07-06
_audit_creation_method                'Generated by PDF-5+ 2025 4.25.0.2'

_chemical_name_systematic             'Calcium Dysprosium Silicate'
_chemical_formula_moiety              'Ca3 Dy2 Si3 O12'
_chemical_formula_sum                 'Ca3 Dy2 O12 Si3'
_chemical_formula_weight              721.48

_cell_length_a                        6.5706(3)
_cell_length_b                        15.6597(7)
_cell_length_c                        10.0675(4)
_cell_angle_alpha                     90.0
_cell_angle_beta                      90.0
_cell_angle_gamma                     90.0
_cell_formula_units_Z                 4
_cell_volume                          1035.88
_symmetry_cell_setting                orthorhombic
_symmetry_space_group_name_H-M        Pnma
_symmetry_Int_Tables_number           62

loop_
_symmetry_equiv_pos_site_id
_symmetry_equiv_pos_as_xyz
1 x,y,z
2 -x,-y,-z
3 x+1/2,-y+1/2,-z+1/2
4 -x+1/2,y+1/2,z+1/2
5 -x,y+1/2,-z
6 x,-y+1/2,z
7 -x+1/2,-y,z+1/2
8 x+1/2,y,-z+1/2

loop_
_atom_site_label
_atom_site_type_symbol
_atom_site_fract_x
_atom_site_fract_y
_atom_site_fract_z
_atom_site_U_iso_or_equiv
_atom_site_symmetry_multiplicity
_atom_site_Wyckoff_symbol
_atom_site_occupancy
Dy1 Dy 0.3782 0.09493 0.07366 0.0101 . . 0.49
Ca2 Ca 0.3782 0.09493 0.07366 0.0101 . . 0.51
Dy3 Dy 0.1747 0.61018 0.16644 0.0112 . . 0.371
Ca4 Ca 0.1747 0.61018 0.16644 0.0112 . . 0.629
Dy5 Dy 0.0318 0.25 0.1703 0.0207 . . 0.279
Ca6 Ca 0.0318 0.25 0.1703 0.0207 . . 0.721
Si7 Si 0.3514 0.0707 0.369 0.008 . . 1.0
Si8 Si 0.0266 0.25 0.5804 0.0074 . . 1.0
O9 O 0.0324 0.1108 0.0365 0.0121 . . 1.0
O10 O 0.0425 0.6615 0.3555 0.0131 . . 1.0
O11 O 0.1925 0.0421 0.4825 0.013 . . 1.0
O12 O 0.2477 0.1448 0.2805 0.0128 . . 1.0
O13 O 0.4059 0.5086 0.2697 0.0139 . . 1.0
O14 O 0.2719 0.25 0.5718 0.0135 . . 1.0
O15 O 0.4296 0.25 0.0665 0.0129 . . 1.0

