data_00-058-0281
# Copyright 2025 International Centre for Diffraction Data. All rights reserved.

_audit_creation_date                  2025-07-04
_audit_creation_method                'Generated by PDF-5+ 2025 4.25.0.2'

_chemical_name_systematic             'Germanium Mercury Thallium Telluride'
_chemical_formula_moiety              'Ge Hg Tl2 Te4'
_chemical_formula_sum                 'Ge Hg Te4 Tl2'
_chemical_formula_weight              1192.34

# Atomic parameters are cross-referenced from PDF entry 04-011-9229

_cell_length_a                        8.3571(11)
_cell_length_b                        8.3571(11)
_cell_length_c                        7.0684(14)
_cell_angle_alpha                     90
_cell_angle_beta                      90
_cell_angle_gamma                     90
_cell_formula_units_Z                 2
_cell_volume                          493.66
_symmetry_cell_setting                tetragonal
_symmetry_space_group_name_H-M        I-42m
_symmetry_Int_Tables_number           121

loop_
_symmetry_equiv_pos_site_id
_symmetry_equiv_pos_as_xyz
1 x,y,z
2 -x,-y,z
3 -x,y,-z
4 x,-y,-z
5 -y,x,-z
6 y,-x,-z
7 y,x,z
8 -y,-x,z
9 x+1/2,y+1/2,z+1/2
10 -x+1/2,-y+1/2,z+1/2
11 -x+1/2,y+1/2,-z+1/2
12 x+1/2,-y+1/2,-z+1/2
13 -y+1/2,x+1/2,-z+1/2
14 y+1/2,-x+1/2,-z+1/2
15 y+1/2,x+1/2,z+1/2
16 -y+1/2,-x+1/2,z+1/2

loop_
_atom_site_label
_atom_site_type_symbol
_atom_site_fract_x
_atom_site_fract_y
_atom_site_fract_z
_atom_site_U_iso_or_equiv
_atom_site_symmetry_multiplicity
_atom_site_Wyckoff_symbol
_atom_site_occupancy
Te1 Te 0.1757 0.1757 0.2254 0.00693 8 i 1.0
Tl2 Tl 0.0 0.5 0.0 0.01733 4 c 1.0
Hg3 Hg 0.0 0.0 0.5 0.01537 2 b 1.0
Ge4 Ge 0.0 0.0 0.0 0.0074 2 a 1.0

loop_
_atom_site_aniso_label
_atom_site_aniso_U_11
_atom_site_aniso_U_12
_atom_site_aniso_U_13
_atom_site_aniso_U_22
_atom_site_aniso_U_23
_atom_site_aniso_U_33
Te1 0.0038 -4.0E-4 -4.0E-4 0.0038 -4.0E-6 0.0132
Tl2 0.0203 0.0 0.0 0.0096 0.0 0.0221
Hg3 0.0173 0.0 0.0 0.0173 0.0 0.0115
Ge4 0.0041 0.0 0.0 0.0041 0.0 0.014

