data_00-056-1315
# Copyright 2025 International Centre for Diffraction Data. All rights reserved.

_audit_creation_date                  2025-07-04
_audit_creation_method                'Generated by PDF-5+ 2025 4.25.0.2'

_chemical_name_systematic             'Aluminum Neodymium Nickel'
_chemical_formula_moiety              'Al Nd2 Ni2'
_chemical_formula_sum                 'Al Nd2 Ni2'
_chemical_formula_weight              432.85

_cell_length_a                        5.4827(2)
_cell_length_b                        8.5546(3)
_cell_length_c                        4.2594(2)
_cell_angle_alpha                     90.0
_cell_angle_beta                      90.0
_cell_angle_gamma                     90.0
_cell_formula_units_Z                 2
_cell_volume                          199.77
_symmetry_cell_setting                orthorhombic
_symmetry_space_group_name_H-M        Immm
_symmetry_Int_Tables_number           71

loop_
_symmetry_equiv_pos_site_id
_symmetry_equiv_pos_as_xyz
1 x,y,z
2 -x,-y,-z
3 x,-y,-z
4 -x,y,z
5 -x,y,-z
6 x,-y,z
7 -x,-y,z
8 x,y,-z
9 x+1/2,y+1/2,z+1/2
10 -x+1/2,-y+1/2,-z+1/2
11 x+1/2,-y+1/2,-z+1/2
12 -x+1/2,y+1/2,z+1/2
13 -x+1/2,y+1/2,-z+1/2
14 x+1/2,-y+1/2,z+1/2
15 -x+1/2,-y+1/2,z+1/2
16 x+1/2,y+1/2,-z+1/2

loop_
_atom_site_label
_atom_site_type_symbol
_atom_site_fract_x
_atom_site_fract_y
_atom_site_fract_z
_atom_site_U_iso_or_equiv
_atom_site_symmetry_multiplicity
_atom_site_Wyckoff_symbol
_atom_site_occupancy
Nd1 Nd 0.0 0.2957 0.5 . . . 1.0
Ni2 Ni 0.234 0.5 0.0 . . . 1.0
Al3 Al 0.0 0.0 0.0 . . . 1.0

