data_00-061-0191
# Copyright 2025 International Centre for Diffraction Data. All rights reserved.

_audit_creation_date                  2025-07-04
_audit_creation_method                'Generated by PDF-5+ 2025 4.25.0.2'

_chemical_name_systematic             'Germanium Vanadium Oxide'
_chemical_formula_moiety              'Ge0.74 V0.21 O2'
_chemical_formula_sum                 'Ge0.74 O2 V0.21'
_chemical_formula_weight              96.44

_cell_length_a                        4.40010(10)
_cell_length_b                        4.40010(10)
_cell_length_c                        2.86700(10)
_cell_angle_alpha                     90.0
_cell_angle_beta                      90.0
_cell_angle_gamma                     90.0
_cell_formula_units_Z                 2
_cell_volume                          55.51
_symmetry_cell_setting                tetragonal
_symmetry_space_group_name_H-M        P42/mnm
_symmetry_Int_Tables_number           136

loop_
_symmetry_equiv_pos_site_id
_symmetry_equiv_pos_as_xyz
1 x,y,z
2 -x,-y,-z
3 -x,-y,z
4 x,y,-z
5 x+1/2,-y+1/2,z+1/2
6 -x+1/2,y+1/2,-z+1/2
7 -x+1/2,y+1/2,z+1/2
8 x+1/2,-y+1/2,-z+1/2
9 y,x,z
10 -y,-x,-z
11 -y,-x,z
12 y,x,-z
13 y+1/2,-x+1/2,z+1/2
14 -y+1/2,x+1/2,-z+1/2
15 -y+1/2,x+1/2,z+1/2
16 y+1/2,-x+1/2,-z+1/2

loop_
_atom_site_label
_atom_site_type_symbol
_atom_site_fract_x
_atom_site_fract_y
_atom_site_fract_z
_atom_site_U_iso_or_equiv
_atom_site_symmetry_multiplicity
_atom_site_Wyckoff_symbol
_atom_site_occupancy
V1 V 0.0 0.0 0.0 0.0053 . . 0.21
Ge2 Ge 0.0 0.0 0.0 0.0053 . . 0.74
O3 O 0.3054 0.3054 0.0 0.0025 . . 1.0

