data_00-063-0566
# Copyright 2025 International Centre for Diffraction Data. All rights reserved.

_audit_creation_date                  2025-07-06
_audit_creation_method                'Generated by PDF-5+ 2025 4.25.0.2'

_chemical_name_systematic             'Lithium Nickel Antimony Oxide'
_chemical_formula_moiety              'Li3 Ni2 Sb O6'
_chemical_formula_sum                 'Li3 Ni2 O6 Sb'
_chemical_formula_weight              355.96

_cell_length_a                        5.1828(2)
_cell_length_b                        8.9678(3)
_cell_length_c                        5.1578(2)
_cell_angle_alpha                     90.0
_cell_angle_beta                      109.695(2)
_cell_angle_gamma                     90.0
_cell_formula_units_Z                 2
_cell_volume                          225.45
_symmetry_cell_setting                monoclinic
_symmetry_space_group_name_H-M        C12/m1
_symmetry_Int_Tables_number           12

loop_
_symmetry_equiv_pos_site_id
_symmetry_equiv_pos_as_xyz
1 x,y,z
2 -x,-y,-z
3 x,-y,z
4 -x,y,-z
5 x+1/2,y+1/2,z
6 -x+1/2,-y+1/2,-z
7 x+1/2,-y+1/2,z
8 -x+1/2,y+1/2,-z

loop_
_atom_site_label
_atom_site_type_symbol
_atom_site_fract_x
_atom_site_fract_y
_atom_site_fract_z
_atom_site_U_iso_or_equiv
_atom_site_symmetry_multiplicity
_atom_site_Wyckoff_symbol
_atom_site_occupancy
Sb1 Sb 0.0 0.0 0.0 0.0109 . . 1.0
Ni2 Ni 0.0 0.3337 0.0 0.0058 . . 1.0
Li3 Li 0.0 0.164 0.5 0.05 . . 1.0
Li4 Li 0.0 0.5 0.5 0.012 . . 1.0
O5 O 0.7632 0.0 0.229 0.006 . . 1.0
O6 O 0.2478 0.1605 0.2283 0.0116 . . 1.0

