data_00-070-0130
# Copyright 2025 International Centre for Diffraction Data. All rights reserved.

_audit_creation_date                  2025-07-06
_audit_creation_method                'Generated by PDF-5+ 2025 4.25.0.2'

_chemical_name_systematic             'Calcium Ytterbium Phosphate'
_chemical_formula_moiety              'Ca9 Yb ( P O4 )7'
_chemical_formula_sum                 'Ca9 O28 P7 Yb'
_chemical_formula_weight              1198.55

_cell_length_a                        10.4073(2)
_cell_length_b                        10.4073(2)
_cell_length_c                        37.273(2)
_cell_angle_alpha                     90
_cell_angle_beta                      90
_cell_angle_gamma                     120
_cell_formula_units_Z                 6
_cell_volume                          3496.24
_symmetry_cell_setting                hexagonal
_symmetry_space_group_name_H-M        R3cH
_symmetry_Int_Tables_number           161

loop_
_symmetry_equiv_pos_site_id
_symmetry_equiv_pos_as_xyz
1 x,y,z
2 -y,x-y,z
3 -x+y,-x,z
4 -y,-x,z+1/2
5 x,x-y,z+1/2
6 -x+y,y,z+1/2
7 x+2/3,y+1/3,z+1/3
8 -y+2/3,x-y+1/3,z+1/3
9 -x+y+2/3,-x+1/3,z+1/3
10 -y+2/3,-x+1/3,z+5/6
11 x+2/3,x-y+1/3,z+5/6
12 -x+y+2/3,y+1/3,z+5/6
13 x+1/3,y+2/3,z+2/3
14 -y+1/3,x-y+2/3,z+2/3
15 -x+y+1/3,-x+2/3,z+2/3
16 -y+1/3,-x+2/3,z+1/6
17 x+1/3,x-y+2/3,z+1/6
18 -x+y+1/3,y+2/3,z+1/6

loop_
_atom_site_label
_atom_site_type_symbol
_atom_site_fract_x
_atom_site_fract_y
_atom_site_fract_z
_atom_site_U_iso_or_equiv
_atom_site_symmetry_multiplicity
_atom_site_Wyckoff_symbol
_atom_site_occupancy
Ca1 Ca 0.3914 1.1802 0.9987 0.0127 . . 0.892
Yb2 Yb 0.3914 1.1802 0.9987 0.0127 . . 0.108
Ca3 Ca 0.6227 0.809 0.9657 0.0127 . . 0.921
Yb4 Yb 0.6227 0.809 0.9657 0.0127 . . 0.079
Ca5 Ca 0.813 1.199 0.8931 0.0127 . . 1.0
Ca6 Ca 0.3333 0.6667 0.8986 0.0127 . . 0.588
Yb7 Yb 0.3333 0.6667 0.8986 0.0127 . . 0.412
P8 P 1.0 1.0 1.0019 0.011 . . 1.0
P9 P 0.684 0.844 0.8653 0.011 . . 1.0
P10 P 0.525 1.002 0.9314 0.011 . . 1.0
O11 O 0.709 0.816 0.9103 . . . 1.0
O12 O 0.739 0.743 0.8468 . . . 1.0
O13 O 0.751 0.973 0.8546 . . . 1.0
O14 O 0.53 0.768 0.8585 . . . 1.0
O15 O 0.43 0.839 0.9413 . . . 1.0
O16 O 0.435 1.093 0.9449 . . . 1.0
O17 O 0.674 1.054 0.949 . . . 1.0
O18 O 0.524 1.025 0.893 . . . 1.0
O19 O 0.86 0.874 0.9889 . . . 1.0
O20 O 1.0 1.0 1.042 . . . 1.0

