data_00-070-0105
# Copyright 2025 International Centre for Diffraction Data. All rights reserved.

_audit_creation_date                  2025-07-06
_audit_creation_method                'Generated by PDF-5+ 2025 4.25.0.2'

_chemical_name_systematic             'Ytterbium Cobalt Aluminum'
_chemical_formula_moiety              'Yb2 Co3 Al9'
_chemical_formula_sum                 'Al9 Co3 Yb2'
_chemical_formula_weight              765.75

_cell_length_a                        12.6793(5)
_cell_length_b                        7.4347(2)
_cell_length_c                        9.2361(4)
_cell_angle_alpha                     90
_cell_angle_beta                      90
_cell_angle_gamma                     90
_cell_formula_units_Z                 4
_cell_volume                          870.66
_symmetry_cell_setting                orthorhombic
_symmetry_space_group_name_H-M        Cmcm
_symmetry_Int_Tables_number           63

loop_
_symmetry_equiv_pos_site_id
_symmetry_equiv_pos_as_xyz
1 x,y,z
2 -x,-y,-z
3 x,-y,-z
4 -x,y,z
5 x,y,-z+1/2
6 -x,-y,z+1/2
7 x,-y,z+1/2
8 -x,y,-z+1/2
9 x+1/2,y+1/2,z
10 -x+1/2,-y+1/2,-z
11 x+1/2,-y+1/2,-z
12 -x+1/2,y+1/2,z
13 x+1/2,y+1/2,-z+1/2
14 -x+1/2,-y+1/2,z+1/2
15 x+1/2,-y+1/2,z+1/2
16 -x+1/2,y+1/2,-z+1/2

loop_
_atom_site_label
_atom_site_type_symbol
_atom_site_fract_x
_atom_site_fract_y
_atom_site_fract_z
_atom_site_B_iso_or_equiv
_atom_site_symmetry_multiplicity
_atom_site_Wyckoff_symbol
_atom_site_occupancy
Yb1 Yb 0.3412 0.3338 0.25 . 8 g 1.0
Co2 Co 0.3289 0.0 0.0 . 8 e 1.0
Co3 Co 0.0 0.0 0.0 . 4 a 1.0
Al4 Al 0.1633 0.1726 0.0769 . 16 h 1.0
Al5 Al 0.1047 0.4471 0.25 . 8 g 1.0
Al6 Al 0.0 0.3314 0.5432 . 8 f 1.0
Al7 Al 0.0 0.1419 0.25 . 4 c 1.0

