data_00-064-0847
# Copyright 2025 International Centre for Diffraction Data. All rights reserved.

_audit_creation_date                  2025-07-06
_audit_creation_method                'Generated by PDF-5+ 2025 4.25.0.2'

_chemical_name_systematic             'Manganese Erbium Germanium Oxide'
_chemical_formula_moiety              'Mn Er2 Ge4 O12'
_chemical_formula_sum                 'Er2 Ge4 Mn O12'
_chemical_formula_weight              871.96

_cell_length_a                        9.86945(7)
_cell_length_b                        9.86945(7)
_cell_length_c                        4.96668(5)
_cell_angle_alpha                     90.0
_cell_angle_beta                      90.0
_cell_angle_gamma                     90.0
_cell_formula_units_Z                 2
_cell_volume                          483.78
_symmetry_cell_setting                tetragonal
_symmetry_space_group_name_H-M        P4/nbm
_symmetry_Int_Tables_number           125

loop_
_symmetry_equiv_pos_site_id
_symmetry_equiv_pos_as_xyz
1 x,y,z
2 -x,-y,-z
3 -x,y+1/2,z
4 x,-y+1/2,-z
5 x+1/2,-y,z
6 -x+1/2,y,-z
7 -x+1/2,-y+1/2,z
8 x+1/2,y+1/2,-z
9 y,x,-z
10 -y,-x,z
11 -y,x+1/2,-z
12 y,-x+1/2,z
13 y+1/2,-x,-z
14 -y+1/2,x,z
15 -y+1/2,-x+1/2,-z
16 y+1/2,x+1/2,z

loop_
_atom_site_label
_atom_site_type_symbol
_atom_site_fract_x
_atom_site_fract_y
_atom_site_fract_z
_atom_site_U_iso_or_equiv
_atom_site_symmetry_multiplicity
_atom_site_Wyckoff_symbol
_atom_site_occupancy
Mn1 Mn 0.0 0.0 0.5 0.0215 . . 0.5
Er2 Er 0.0 0.0 0.5 0.0215 . . 0.5
Er3 Er 0.25 0.25 0.5 0.0172 . . 1.0
Ge4 Ge 0.97848 0.25 0.0 0.0174 . . 1.0
O5 O 0.1307 0.8693 0.8344 0.012 . . 1.0
O6 O 0.1695 0.0638 0.2571 0.0123 . . 1.0

