data_00-067-0215
# Copyright 2025 International Centre for Diffraction Data. All rights reserved.

_audit_creation_date                  2025-07-06
_audit_creation_method                'Generated by PDF-5+ 2025 4.25.0.2'

_chemical_name_systematic             'Sodium Neptunium Oxide'
_chemical_name_common                 'sodium neptunate'
_chemical_formula_moiety              'Na5 Np O6'
_chemical_formula_sum                 'Na5 Np O6'
_chemical_formula_weight              447.99

_cell_length_a                        5.82924(6)
_cell_length_b                        9.996207(11)
_cell_length_c                        5.75771(6)
_cell_angle_alpha                     90.0
_cell_angle_beta                      110.729(5)
_cell_angle_gamma                     90.0
_cell_formula_units_Z                 2
_cell_volume                          313.78
_symmetry_cell_setting                monoclinic
_symmetry_space_group_name_H-M        C12/m1
_symmetry_Int_Tables_number           12

loop_
_symmetry_equiv_pos_site_id
_symmetry_equiv_pos_as_xyz
1 x,y,z
2 -x,-y,-z
3 x,-y,z
4 -x,y,-z
5 x+1/2,y+1/2,z
6 -x+1/2,-y+1/2,-z
7 x+1/2,-y+1/2,z
8 -x+1/2,y+1/2,-z

loop_
_atom_site_label
_atom_site_type_symbol
_atom_site_fract_x
_atom_site_fract_y
_atom_site_fract_z
_atom_site_U_iso_or_equiv
_atom_site_symmetry_multiplicity
_atom_site_Wyckoff_symbol
_atom_site_occupancy
Np1 Np 0.0 0.0 0.0 0.0083 . . 1.0
Na2 Na 0.0 0.66445 0.0 0.00365 . . 1.0
Na3 Na 0.0 0.5 0.5 0.00365 . . 1.0
Na4 Na 0.5 0.33044 0.5 0.00365 . . 1.0
O5 O 0.27132 0.3542 0.78402 0.0199 . . 1.0
O6 O 0.26669 0.5 0.20236 0.0199 . . 1.0

