data_00-060-0344
# Copyright 2025 International Centre for Diffraction Data. All rights reserved.

_audit_creation_date                  2025-07-04
_audit_creation_method                'Generated by PDF-5+ 2025 4.25.0.2'

_chemical_name_systematic             'Iron Oxide Hydroxide'
_chemical_formula_moiety              'Fe O ( O H )'
_chemical_formula_sum                 'Fe H O2'
_chemical_formula_weight              88.85

# Atomic parameters are cross-referenced from PDF entry 04-010-4300

_cell_length_a                        3.072(2)
_cell_length_b                        12.516(3)
_cell_length_c                        3.873(2)
_cell_angle_alpha                     90
_cell_angle_beta                      90
_cell_angle_gamma                     90
_cell_formula_units_Z                 4
_cell_volume                          148.91
_symmetry_cell_setting                orthorhombic
_symmetry_space_group_name_H-M        Cmcm
_symmetry_Int_Tables_number           63

loop_
_symmetry_equiv_pos_site_id
_symmetry_equiv_pos_as_xyz
1 x,y,z
2 -x,-y,-z
3 x,-y,-z
4 -x,y,z
5 x,y,-z+1/2
6 -x,-y,z+1/2
7 x,-y,z+1/2
8 -x,y,-z+1/2
9 x+1/2,y+1/2,z
10 -x+1/2,-y+1/2,-z
11 x+1/2,-y+1/2,-z
12 -x+1/2,y+1/2,z
13 x+1/2,y+1/2,-z+1/2
14 -x+1/2,-y+1/2,z+1/2
15 x+1/2,-y+1/2,z+1/2
16 -x+1/2,y+1/2,-z+1/2

loop_
_atom_site_label
_atom_site_type_symbol
_atom_site_fract_x
_atom_site_fract_y
_atom_site_fract_z
_atom_site_U_iso_or_equiv
_atom_site_symmetry_multiplicity
_atom_site_Wyckoff_symbol
_atom_site_occupancy
Fe1 Fe 0.5 0.1778 0.25 0.00792 4 c 1.0
O2 O 0.0 0.2889 0.25 0.01022 4 c 1.0
O3 O 0.0 0.0738 0.25 0.01337 4 c 1.0
H4 H 0.0 -0.001 0.179 0.02133 8 f 0.5

loop_
_atom_site_aniso_label
_atom_site_aniso_U_11
_atom_site_aniso_U_12
_atom_site_aniso_U_13
_atom_site_aniso_U_22
_atom_site_aniso_U_23
_atom_site_aniso_U_33
Fe1 0.0021 0.0 0.0 0.012 0.0 0.00965
O2 0.00516 0.0 0.0 0.017 0.0 0.00851
O3 0.00502 0.0 0.0 0.019 0.0 0.0161
H4 0.0172 0.0 0.0 0.024 -0.001 0.0228

