data_00-067-0714
# Copyright 2025 International Centre for Diffraction Data. All rights reserved.

_audit_creation_date                  2025-07-06
_audit_creation_method                'Generated by PDF-5+ 2025 4.25.0.2'

_chemical_name_systematic             'Strontium Fluoride Bismuth Sulfide'
_chemical_formula_moiety              '( Sr F ) ( Bi S2 )'
_chemical_formula_sum                 'Bi F S2 Sr'
_chemical_formula_weight              379.73

# Atomic parameters are cross-referenced from PDF entry 04-020-4091

_cell_length_a                        4.0790(2)
_cell_length_b                        4.0790(2)
_cell_length_c                        13.8140(5)
_cell_angle_alpha                     90
_cell_angle_beta                      90
_cell_angle_gamma                     90
_cell_formula_units_Z                 2
_cell_volume                          229.84
_symmetry_cell_setting                tetragonal
_symmetry_space_group_name_H-M        P4/nmm
_symmetry_Int_Tables_number           129

loop_
_symmetry_equiv_pos_site_id
_symmetry_equiv_pos_as_xyz
1 x,y,z
2 -x,-y,-z
3 -x+1/2,y,z
4 x+1/2,-y,-z
5 x,-y+1/2,z
6 -x,y+1/2,-z
7 -x+1/2,-y+1/2,z
8 x+1/2,y+1/2,-z
9 y,x,z
10 -y,-x,-z
11 -y+1/2,x,z
12 y+1/2,-x,-z
13 y,-x+1/2,z
14 -y,x+1/2,-z
15 -y+1/2,-x+1/2,z
16 y+1/2,x+1/2,-z

loop_
_atom_site_label
_atom_site_type_symbol
_atom_site_fract_x
_atom_site_fract_y
_atom_site_fract_z
_atom_site_U_iso_or_equiv
_atom_site_symmetry_multiplicity
_atom_site_Wyckoff_symbol
_atom_site_occupancy
Sr1 Sr 0.25 0.25 0.1025 0.0069 2 c 1.0
F2 F 0.75 0.25 0.0 0.033 2 a 1.0
Bi3 Bi 0.25 0.25 0.6286 0.0183 2 c 1.0
S4 S 0.25 0.25 0.379 0.06 2 c 1.0
S5 S 0.25 0.25 0.811 0.019 2 c 1.0

