data_00-063-0664
# Copyright 2025 International Centre for Diffraction Data. All rights reserved.

_audit_creation_date                  2025-07-06
_audit_creation_method                'Generated by PDF-5+ 2025 4.25.0.2'

_chemical_name_systematic             'Strontium Cobalt Oxide Silver Selenium'
_chemical_name_common                 oxyselenide
_chemical_formula_moiety              'Sr2 Co O2 Ag2 Se2'
_chemical_formula_structural          'Sr2 Co O2 ( Ag Se )2'
_chemical_formula_sum                 'Ag2 Co O2 Se2 Sr2'
_chemical_formula_weight              639.83

# Atomic parameters are cross-referenced from PDF entry 04-019-7345

_cell_length_a                        4.0980(1)
_cell_length_b                        4.0980(1)
_cell_length_c                        19.4316(2)
_cell_angle_alpha                     90
_cell_angle_beta                      90
_cell_angle_gamma                     90
_cell_formula_units_Z                 2
_cell_volume                          326.33
_symmetry_cell_setting                tetragonal
_symmetry_space_group_name_H-M        I4/mmm
_symmetry_Int_Tables_number           139

loop_
_symmetry_equiv_pos_site_id
_symmetry_equiv_pos_as_xyz
1 x,y,z
2 -x,-y,-z
3 -x,-y,z
4 x,y,-z
5 -x,y,z
6 x,-y,-z
7 x,-y,z
8 -x,y,-z
9 -y,x,z
10 y,-x,-z
11 y,-x,z
12 -y,x,-z
13 y,x,z
14 -y,-x,-z
15 -y,-x,z
16 y,x,-z
17 x+1/2,y+1/2,z+1/2
18 -x+1/2,-y+1/2,-z+1/2
19 -x+1/2,-y+1/2,z+1/2
20 x+1/2,y+1/2,-z+1/2
21 -x+1/2,y+1/2,z+1/2
22 x+1/2,-y+1/2,-z+1/2
23 x+1/2,-y+1/2,z+1/2
24 -x+1/2,y+1/2,-z+1/2
25 -y+1/2,x+1/2,z+1/2
26 y+1/2,-x+1/2,-z+1/2
27 y+1/2,-x+1/2,z+1/2
28 -y+1/2,x+1/2,-z+1/2
29 y+1/2,x+1/2,z+1/2
30 -y+1/2,-x+1/2,-z+1/2
31 -y+1/2,-x+1/2,z+1/2
32 y+1/2,x+1/2,-z+1/2

loop_
_atom_site_label
_atom_site_type_symbol
_atom_site_fract_x
_atom_site_fract_y
_atom_site_fract_z
_atom_site_U_iso_or_equiv
_atom_site_symmetry_multiplicity
_atom_site_Wyckoff_symbol
_atom_site_occupancy
Sr1 Sr 0.0 0.0 0.41655 0.0185 4 e 1.0
Co2 Co 0.0 0.0 0.0 0.0164 2 a 1.0
O3 O 0.0 0.5 0.0 0.01333 4 c 1.0
Ag4 Ag 0.0 0.5 0.25 0.0278 4 d 0.982
Se5 Se 0.0 0.0 0.15453 0.0218 4 e 1.0

