data_00-058-0614
# Copyright 2025 International Centre for Diffraction Data. All rights reserved.

_audit_creation_date                  2025-07-04
_audit_creation_method                'Generated by PDF-5+ 2025 4.25.0.2'

_chemical_name_systematic             'Ammonium Lutetium Phosphate'
_chemical_formula_moiety              'N H4 Lu P2 O7'
_chemical_formula_sum                 'H4 Lu N O7 P2'
_chemical_formula_weight              366.95

# Atomic parameters are cross-referenced from PDF entry 04-017-8895

_cell_length_a                        7.6507(15)
_cell_length_b                        10.789(2)
_cell_length_c                        8.577(2)
_cell_angle_alpha                     90
_cell_angle_beta                      105.75(3)
_cell_angle_gamma                     90
_cell_formula_units_Z                 4
_cell_volume                          681.39
_symmetry_cell_setting                monoclinic
_symmetry_space_group_name_H-M        P21/c
_symmetry_Int_Tables_number           14

loop_
_symmetry_equiv_pos_site_id
_symmetry_equiv_pos_as_xyz
1 x,y,z
2 -x,-y,-z
3 -x,y+1/2,-z+1/2
4 x,-y+1/2,z+1/2

loop_
_atom_site_label
_atom_site_type_symbol
_atom_site_fract_x
_atom_site_fract_y
_atom_site_fract_z
_atom_site_U_iso_or_equiv
_atom_site_symmetry_multiplicity
_atom_site_Wyckoff_symbol
_atom_site_occupancy
Lu1 Lu 0.76565 0.60042 0.24663 0.01229 4 e 1.0
P2 P 0.8685 0.5969 0.6813 0.01585 4 e 1.0
P3 P 0.5631 0.6359 -0.1882 0.01297 4 e 1.0
O4 O 0.8576 0.5906 0.5056 0.02752 4 e 1.0
O5 O 0.9211 0.7757 0.2567 0.01926 4 e 1.0
O6 O 0.6703 0.6142 -0.0158 0.02893 4 e 1.0
O7 O 1.0073 0.5019 0.2219 0.01734 4 e 1.0
O8 O 0.6215 0.4254 0.2293 0.01979 4 e 1.0
O9 O 0.5465 0.728 0.2642 0.01712 4 e 1.0
O10 O 0.6709 0.5684 0.6996 0.01653 4 e 1.0
N11 N 1.186 0.6768 0.0619 0.03003 4 e 1.0
H12 H 1.1839 0.7332 0.0 0.05 4 e 1.0
H13 H 1.2254 0.5968 0.1345 0.05 4 e 1.0
H14 H 1.0578 0.6952 0.0244 0.05 4 e 1.0
H15 H 1.3098 0.6857 0.1098 0.05 4 e 1.0

loop_
_atom_site_aniso_label
_atom_site_aniso_U_11
_atom_site_aniso_U_12
_atom_site_aniso_U_13
_atom_site_aniso_U_22
_atom_site_aniso_U_23
_atom_site_aniso_U_33
Lu1 0.0124 5.0E-4 0.0046 0.0116 -8.0E-4 0.0135
P2 0.022 0.001 0.0019 0.0098 -0.0043 0.014
P3 0.019 0.0016 0.0014 0.0041 0.0026 0.014
O4 0.035 0.012 0.007 0.037 0.009 0.011
O5 0.014 0.002 0.011 0.007 0.0 0.039
O6 0.036 -0.011 -0.001 0.029 -0.004 0.017
O7 0.015 0.013 0.006 0.021 0.008 0.017
O8 0.023 -0.002 0.008 0.009 0.002 0.028
O9 0.02 0.003 0.006 0.016 -0.006 0.016
O10 0.019 -0.003 0.004 0.012 -0.004 0.018
N11 0.035 -0.015 -0.007 0.032 0.008 0.015

