data_00-057-0166
# Copyright 2025 International Centre for Diffraction Data. All rights reserved.

_audit_creation_date                  2025-07-04
_audit_creation_method                'Generated by PDF-5+ 2025 4.25.0.2'

_chemical_name_systematic             'Lithium Aluminum Arsenate'
_chemical_formula_moiety              'Li Al As2 O7'
_chemical_formula_sum                 'Al As2 Li O7'
_chemical_formula_weight              295.76

# Atomic parameters are cross-referenced from PDF entry 04-015-2845

_cell_length_a                        6.583(1)
_cell_length_b                        8.007(1)
_cell_length_c                        4.635(1)
_cell_angle_alpha                     90
_cell_angle_beta                      104.13(3)
_cell_angle_gamma                     90
_cell_formula_units_Z                 2
_cell_volume                          236.92
_symmetry_cell_setting                monoclinic
_symmetry_space_group_name_H-M        C2
_symmetry_Int_Tables_number           5

loop_
_symmetry_equiv_pos_site_id
_symmetry_equiv_pos_as_xyz
1 x,y,z
2 -x,y,-z
3 x+1/2,y+1/2,z
4 -x+1/2,y+1/2,-z

loop_
_atom_site_label
_atom_site_type_symbol
_atom_site_fract_x
_atom_site_fract_y
_atom_site_fract_z
_atom_site_U_iso_or_equiv
_atom_site_symmetry_multiplicity
_atom_site_Wyckoff_symbol
_atom_site_occupancy
Li1 Li 0.0 0.7536 0.5 0.03434 2 b 1.0
Al2 Al 0.0 0.37783 0.5 0.0054 2 b 1.0
As3 As 0.21474 1.03645 0.90646 0.00452 4 c 1.0
O4 O 0.0 0.9453 0.0 0.00969 2 a 1.0
O5 O 0.3936 0.0556 0.2307 0.00652 4 c 1.0
O6 O 0.1515 0.2226 0.7606 0.01099 4 c 1.0
O7 O 0.2547 0.8944 0.662 0.00763 4 c 1.0

loop_
_atom_site_aniso_label
_atom_site_aniso_U_11
_atom_site_aniso_U_12
_atom_site_aniso_U_13
_atom_site_aniso_U_22
_atom_site_aniso_U_23
_atom_site_aniso_U_33
Li1 0.03 0.0 -0.004 0.018 0.0 0.048
Al2 0.0056 0.0 0.001 0.0061 0.0 0.0044
As3 0.00484 1.8E-4 6.9E-4 0.00437 8.0E-5 0.00414
O4 0.0053 0.0 0.006 0.0091 0.0 0.0164
O5 0.0072 0.0013 -0.0034 0.006 1.0E-4 0.0039
O6 0.0138 0.0021 -0.0016 0.0065 0.0037 0.0103
O7 0.0082 -0.0011 0.0038 0.0085 -0.0027 0.0072

