data_00-065-0614
# Copyright 2025 International Centre for Diffraction Data. All rights reserved.

_audit_creation_date                  2025-07-06
_audit_creation_method                'Generated by PDF-5+ 2025 4.25.0.2'

_chemical_name_systematic             'Lithium Sodium Iron Fluoride Phosphate'
_chemical_formula_moiety              'Li Na Fe ( P O4 ) F'
_chemical_formula_sum                 'F Fe Li Na O4 P'
_chemical_formula_weight              199.74

_cell_length_a                        10.97767(29)
_cell_length_b                        6.36061(35)
_cell_length_c                        11.43154(34)
_cell_angle_alpha                     90.0
_cell_angle_beta                      90.0
_cell_angle_gamma                     90.0
_cell_formula_units_Z                 8
_cell_volume                          798.20
_symmetry_cell_setting                orthorhombic
_symmetry_space_group_name_H-M        Pnma
_symmetry_Int_Tables_number           62

loop_
_symmetry_equiv_pos_site_id
_symmetry_equiv_pos_as_xyz
1 x,y,z
2 -x,-y,-z
3 x+1/2,-y+1/2,-z+1/2
4 -x+1/2,y+1/2,z+1/2
5 -x,y+1/2,-z
6 x,-y+1/2,z
7 -x+1/2,-y,z+1/2
8 x+1/2,y,-z+1/2

loop_
_atom_site_label
_atom_site_type_symbol
_atom_site_fract_x
_atom_site_fract_y
_atom_site_fract_z
_atom_site_U_iso_or_equiv
_atom_site_symmetry_multiplicity
_atom_site_Wyckoff_symbol
_atom_site_occupancy
Fe1 Fe 0.0 0.0 0.0 0.0199 . . 1.0
Fe2 Fe 0.5 0.0 0.0 0.0199 . . 1.0
Na3 Na 0.2743 0.0088 -0.1543 0.0299 . . 1.0
Li4 Li 0.736 0.25 0.403 0.033 . . 1.0
Li5 Li 0.545 0.25 0.768 0.033 . . 1.0
P6 P 0.459 0.25 0.2445 0.0209 . . 1.0
P7 P 0.2451 0.75 0.0793 0.0209 . . 1.0
O8 O 0.1833 0.9531 0.0394 0.018 . . 1.0
O9 O 0.2622 0.75 0.2113 0.018 . . 1.0
O10 O 0.3232 0.25 0.2384 0.018 . . 1.0
O11 O 0.3759 0.75 0.0233 0.018 . . 1.0
O12 O 0.513 0.25 0.3704 0.018 . . 1.0
O13 O 0.5073 0.4483 0.1811 0.018 . . 1.0
F14 F 0.8707 0.25 0.5255 0.02 . . 1.0
F15 F -0.0636 -0.25 0.1141 0.02 . . 1.0

