data_00-067-0661
# Copyright 2025 International Centre for Diffraction Data. All rights reserved.

_audit_creation_date                  2025-07-06
_audit_creation_method                'Generated by PDF-5+ 2025 4.25.0.2'

_chemical_name_systematic             'Lithium Magnesium Tungsten Oxide'
_chemical_formula_moiety              'Li2 Mg2 W2 O9'
_chemical_formula_sum                 'Li2 Mg2 O9 W2'
_chemical_formula_weight              574.16

# Atomic parameters are cross-referenced from PDF entry 04-022-3901

_cell_length_a                        5.12104(3)
_cell_length_b                        5.12104(3)
_cell_length_c                        14.06225(8)
_cell_angle_alpha                     90
_cell_angle_beta                      90
_cell_angle_gamma                     120
_cell_formula_units_Z                 2
_cell_volume                          319.38
_symmetry_cell_setting                hexagonal
_symmetry_space_group_name_H-M        P-3c1
_symmetry_Int_Tables_number           165

loop_
_symmetry_equiv_pos_site_id
_symmetry_equiv_pos_as_xyz
1 x,y,z
2 -x,-y,-z
3 -y,x-y,z
4 y,-x+y,-z
5 -x+y,-x,z
6 x-y,x,-z
7 -y,-x,z+1/2
8 y,x,-z+1/2
9 x,x-y,z+1/2
10 -x,-x+y,-z+1/2
11 -x+y,y,z+1/2
12 x-y,-y,-z+1/2

loop_
_atom_site_label
_atom_site_type_symbol
_atom_site_fract_x
_atom_site_fract_y
_atom_site_fract_z
_atom_site_U_iso_or_equiv
_atom_site_symmetry_multiplicity
_atom_site_Wyckoff_symbol
_atom_site_occupancy
Li1 Li 0.33333 0.66666 0.0233 0.02 4 d 0.5
Mg2 Mg 0.33333 0.66666 0.0233 0.02 4 d 0.5
Li3 Li 0.33333 0.66666 0.3123 0.022 4 d 0.5
Mg4 Mg 0.33333 0.66666 0.3123 0.022 4 d 0.5
W5 W 0.0 0.0 0.35735 0.022 4 c 1.0
O6 O 0.337 0.3059 0.0912 0.027 12 g 1.0
O7 O 0.3043 0.0 0.25 0.027 6 f 1.0

