data_00-062-0043
# Copyright 2025 International Centre for Diffraction Data. All rights reserved.

_audit_creation_date                  2025-07-06
_audit_creation_method                'Generated by PDF-5+ 2025 4.25.0.2'

_chemical_name_systematic             'Barium Strontium Cobalt Europium Oxide'
_chemical_formula_moiety              'Ba4 Sr2 Co4 Eu2 O15'
_chemical_formula_sum                 'Ba4 Co4 Eu2 O15 Sr2'
_chemical_formula_weight              1504.19

_cell_length_a                        11.5940(4)
_cell_length_b                        11.5940(4)
_cell_length_c                        6.82096(23)
_cell_angle_alpha                     90.0
_cell_angle_beta                      90.0
_cell_angle_gamma                     120.0
_cell_formula_units_Z                 2
_cell_volume                          794.04
_symmetry_cell_setting                hexagonal
_symmetry_space_group_name_H-M        P63mc
_symmetry_Int_Tables_number           186

loop_
_symmetry_equiv_pos_site_id
_symmetry_equiv_pos_as_xyz
1 x,y,z
2 -y,x-y,z
3 -x+y,-x,z
4 -y,-x,z
5 x,x-y,z
6 -x+y,y,z
7 -x,-y,z+1/2
8 y,-x+y,z+1/2
9 x-y,x,z+1/2
10 y,x,z+1/2
11 -x,-x+y,z+1/2
12 x-y,-y,z+1/2

loop_
_atom_site_label
_atom_site_type_symbol
_atom_site_fract_x
_atom_site_fract_y
_atom_site_fract_z
_atom_site_U_iso_or_equiv
_atom_site_symmetry_multiplicity
_atom_site_Wyckoff_symbol
_atom_site_occupancy
Sr1 Sr 0.0 0.0 0.0 0.01816 . . 1.0
Ba2 Ba 0.17437 0.82563 0.1788 0.01816 . . 1.0
Ba3 Ba 0.33333 0.66667 0.4936 0.01816 . . 1.0
Sr4 Sr 0.47578 0.52422 0.8338 0.00505 . . 0.33333
Eu5 Eu 0.47578 0.52422 0.8338 0.00505 . . 0.66667
Co6 Co 0.33333 0.66667 -0.0226 0.005 . . 1.0
Co7 Co 0.1759 0.8241 0.6544 0.005 . . 1.0
O8 O 0.6569 0.0766 0.0406 0.01 . . 1.0
O9 O 0.24586 0.75414 0.8367 0.01 . . 1.0
O10 O 0.4111 0.5889 0.153 0.01 . . 1.0
O11 O 0.9061 0.0939 0.2575 0.01 . . 1.0

