data_00-066-0857
# Copyright 2025 International Centre for Diffraction Data. All rights reserved.

_audit_creation_date                  2025-07-06
_audit_creation_method                'Generated by PDF-5+ 2025 4.25.0.2'

_chemical_name_systematic             'Barium Zirconium Titanium Oxide'
_chemical_formula_moiety              'Ba Zr0.05 Ti0.95 O3'
_chemical_formula_sum                 'Ba O3 Ti0.95 Zr0.05'
_chemical_formula_weight              235.36

_cell_length_a                        4.00491
_cell_length_b                        5.68250
_cell_length_c                        5.69105
_cell_angle_alpha                     90.0
_cell_angle_beta                      90.0
_cell_angle_gamma                     90.0
_cell_formula_units_Z                 2
_cell_volume                          129.82
_symmetry_cell_setting                orthorhombic
_symmetry_space_group_name_H-M        Amm2
_symmetry_Int_Tables_number           38

loop_
_symmetry_equiv_pos_site_id
_symmetry_equiv_pos_as_xyz
1 x,y,z
2 -x,-y,z
3 -x,y,z
4 x,-y,z
5 x,y+1/2,z+1/2
6 -x,-y+1/2,z+1/2
7 -x,y+1/2,z+1/2
8 x,-y+1/2,z+1/2

loop_
_atom_site_label
_atom_site_type_symbol
_atom_site_fract_x
_atom_site_fract_y
_atom_site_fract_z
_atom_site_U_iso_or_equiv
_atom_site_symmetry_multiplicity
_atom_site_Wyckoff_symbol
_atom_site_occupancy
Ba1 Ba 0.0 0.0 0.0 0.0449 . . 1.0
Zr2 Zr 0.5 0.0 0.482 0.03978 . . 0.05
Ti3 Ti 0.5 0.0 0.482 0.04108 . . 0.95
O4 O 0.5 0.256 0.236 . . . 0.5
O5 O 0.0 0.0 0.5 0.02577 . . 1.0

