data_00-066-0018
# Copyright 2025 International Centre for Diffraction Data. All rights reserved.

_audit_creation_date                  2025-07-06
_audit_creation_method                'Generated by PDF-5+ 2025 4.25.0.2'

_chemical_name_systematic             'Strontium Copper Tungsten Molybdenum Oxide'
_chemical_formula_moiety              'Sr2 Cu W0.9 Mo0.1 O6'
_chemical_formula_sum                 'Cu Mo0.1 O6 Sr2 W0.9'
_chemical_formula_weight              509.83

_cell_length_a                        5.42977(1)
_cell_length_b                        5.42977(1)
_cell_length_c                        8.40990(2)
_cell_angle_alpha                     90.0
_cell_angle_beta                      90.0
_cell_angle_gamma                     90.0
_cell_formula_units_Z                 2
_cell_volume                          247.94
_symmetry_cell_setting                tetragonal
_symmetry_space_group_name_H-M        I4/m
_symmetry_Int_Tables_number           87

loop_
_symmetry_equiv_pos_site_id
_symmetry_equiv_pos_as_xyz
1 x,y,z
2 -x,-y,-z
3 -x,-y,z
4 x,y,-z
5 -y,x,z
6 y,-x,-z
7 y,-x,z
8 -y,x,-z
9 x+1/2,y+1/2,z+1/2
10 -x+1/2,-y+1/2,-z+1/2
11 -x+1/2,-y+1/2,z+1/2
12 x+1/2,y+1/2,-z+1/2
13 -y+1/2,x+1/2,z+1/2
14 y+1/2,-x+1/2,-z+1/2
15 y+1/2,-x+1/2,z+1/2
16 -y+1/2,x+1/2,-z+1/2

loop_
_atom_site_label
_atom_site_type_symbol
_atom_site_fract_x
_atom_site_fract_y
_atom_site_fract_z
_atom_site_B_iso_or_equiv
_atom_site_symmetry_multiplicity
_atom_site_Wyckoff_symbol
_atom_site_occupancy
Sr1 Sr 0.0 0.5 0.25 0.646 . . 1.0
Cu2 Cu 0.0 0.0 0.5 0.592 . . 1.0
W3 W 0.0 0.0 0.0 0.289 . . 0.9
Mo4 Mo 0.0 0.0 0.0 0.289 . . 0.1
O5 O 0.0 0.0 0.23 0.939 . . 1.0
O6 O 0.29278 0.20834 0.0 0.709 . . 1.0

