data_00-066-0135
# Copyright 2025 International Centre for Diffraction Data. All rights reserved.

_audit_creation_date                  2025-07-06
_audit_creation_method                'Generated by PDF-5+ 2025 4.25.0.2'

_chemical_name_systematic             'Dysprosium Yttrium Tantalum Oxide'
_chemical_formula_moiety              'Dy2.67 O7 Ta Y0.33'
_chemical_formula_sum                 'Dy2.67 O7 Ta Y0.33'
_chemical_formula_weight              756.15

_cell_length_a                        10.5408(2)
_cell_length_b                        7.4560(1)
_cell_length_c                        7.4921(1)
_cell_angle_alpha                     90.0
_cell_angle_beta                      90.0
_cell_angle_gamma                     90.0
_cell_formula_units_Z                 4
_cell_volume                          588.82
_symmetry_cell_setting                orthorhombic
_symmetry_space_group_name_H-M        C2221
_symmetry_Int_Tables_number           20

loop_
_symmetry_equiv_pos_site_id
_symmetry_equiv_pos_as_xyz
1 x,y,z
2 x,-y,-z
3 -x,-y,z+1/2
4 -x,y,-z+1/2
5 x+1/2,y+1/2,z
6 x+1/2,-y+1/2,-z
7 -x+1/2,-y+1/2,z+1/2
8 -x+1/2,y+1/2,-z+1/2

loop_
_atom_site_label
_atom_site_type_symbol
_atom_site_fract_x
_atom_site_fract_y
_atom_site_fract_z
_atom_site_U_iso_or_equiv
_atom_site_symmetry_multiplicity
_atom_site_Wyckoff_symbol
_atom_site_occupancy
Dy1 Dy 0.0 0.4963 0.25 0.01665 . . 0.89
Y2 Y 0.0 0.4963 0.25 0.01665 . . 0.11
Dy3 Dy 0.2374 0.249 8.0E-4 0.0135 . . 0.89
Y4 Y 0.2374 0.249 8.0E-4 0.0135 . . 0.11
Ta5 Ta 0.0 0.0146 0.25 0.00281 . . 1.0
O6 O 0.1041 0.265 0.301 0.03024 . . 1.0
O7 O 0.1363 0.7984 0.265 0.00332 . . 1.0
O8 O 0.142 0.5 0.0 0.05088 . . 1.0
O9 O 0.1414 0.5 0.5 0.01817 . . 1.0
O10 O 0.1043 0.0 0.0 0.02266 . . 1.0

