data_00-071-0570
# Copyright 2025 International Centre for Diffraction Data. All rights reserved.

_audit_creation_date                  2025-07-06
_audit_creation_method                'Generated by PDF-5+ 2025 4.25.0.2'

_chemical_name_systematic             'Copper Phosphate'
_chemical_name_common                 '\a-Cu2 P2 O7'
_chemical_formula_moiety              'Cu2 P2 O7'
_chemical_formula_sum                 'Cu2 O7 P2'
_chemical_formula_weight              301.03

_cell_length_a                        6.89124(16)
_cell_length_b                        8.11360(19)
_cell_length_c                        9.16430(21)
_cell_angle_alpha                     90.0
_cell_angle_beta                      109.6009(10)
_cell_angle_gamma                     90.0
_cell_formula_units_Z                 4
_cell_volume                          482.71
_symmetry_cell_setting                monoclinic
_symmetry_space_group_name_H-M        C12/c1
_symmetry_Int_Tables_number           15

loop_
_symmetry_equiv_pos_site_id
_symmetry_equiv_pos_as_xyz
1 x,y,z
2 -x,-y,-z
3 -x,y,-z+1/2
4 x,-y,z+1/2
5 x+1/2,y+1/2,z
6 -x+1/2,-y+1/2,-z
7 -x+1/2,y+1/2,-z+1/2
8 x+1/2,-y+1/2,z+1/2

loop_
_atom_site_label
_atom_site_type_symbol
_atom_site_fract_x
_atom_site_fract_y
_atom_site_fract_z
_atom_site_U_iso_or_equiv
_atom_site_symmetry_multiplicity
_atom_site_Wyckoff_symbol
_atom_site_occupancy
Cu1 Cu -0.0162 0.31301 0.50746 . . . 1.0
P2 P 0.19795 0.00657 0.20588 . . . 1.0
O3 O 0.0 0.0449 0.25 . . . 1.0
O4 O 0.37516 8.9E-4 0.36123 . . . 1.0
O5 O 0.21959 0.15575 0.11289 . . . 1.0
O6 O 0.17857 -0.15088 0.11808 . . . 1.0

