data_00-056-0244
# Copyright 2025 International Centre for Diffraction Data. All rights reserved.

_audit_creation_date                  2025-07-04
_audit_creation_method                'Generated by PDF-5+ 2025 4.25.0.2'

_chemical_name_systematic             'Aluminum Neodymium Cerium Oxide'
_chemical_formula_moiety              'Ce0.7 Nd0.3 Al O3'
_chemical_formula_sum                 'Al Ce0.7 Nd0.3 O3'
_chemical_formula_weight              216.33

_cell_length_a                        7.5159(3)
_cell_length_b                        5.3230(2)
_cell_length_c                        5.3513(2)
_cell_angle_alpha                     90.0
_cell_angle_beta                      90.0
_cell_angle_gamma                     90.0
_cell_formula_units_Z                 4
_cell_volume                          214.09
_symmetry_cell_setting                orthorhombic
_symmetry_space_group_name_H-M        Immb
_symmetry_Int_Tables_number           74

loop_
_symmetry_equiv_pos_site_id
_symmetry_equiv_pos_as_xyz
1 x,y,z
2 -x,-y,-z
3 -x,y,-z
4 x,-y,z
5 x+1/2,y,-z
6 -x+1/2,-y,z
7 -x+1/2,y,z
8 x+1/2,-y,-z
9 x+1/2,y+1/2,z+1/2
10 -x+1/2,-y+1/2,-z+1/2
11 -x+1/2,y+1/2,-z+1/2
12 x+1/2,-y+1/2,z+1/2
13 x,y+1/2,-z+1/2
14 -x,-y+1/2,z+1/2
15 -x,y+1/2,z+1/2
16 x,-y+1/2,-z+1/2

loop_
_atom_site_label
_atom_site_type_symbol
_atom_site_fract_x
_atom_site_fract_y
_atom_site_fract_z
_atom_site_B_iso_or_equiv
_atom_site_symmetry_multiplicity
_atom_site_Wyckoff_symbol
_atom_site_occupancy
Ce1 Ce 0.25 0.0 0.001 0.76 4 e 0.7
Nd2 Nd 0.25 0.0 0.001 0.76 4 e 0.3
Al3 Al 0.0 0.0 0.5 0.48 4 b 1.0
O4 O 0.25 0.0 0.467 1.7 4 e 1.0
O5 O -0.018 0.75 0.25 1.3 8 g 1.0

