data_00-070-0410
# Copyright 2025 International Centre for Diffraction Data. All rights reserved.

_audit_creation_date                  2025-07-06
_audit_creation_method                'Generated by PDF-5+ 2025 4.25.0.2'

_chemical_name_systematic             'Cobalt Ammine Chloride'
_chemical_name_common                 'purpureo salt'
_chemical_formula_moiety              '( Co ( N H3 )5 Cl ) Cl2'
_chemical_formula_sum                 'Cl3 Co H15 N5'
_chemical_formula_weight              250.44

_cell_length_a                        13.2648(3)
_cell_length_b                        10.33693(17)
_cell_length_c                        6.70805(17)
_cell_angle_alpha                     90
_cell_angle_beta                      90
_cell_angle_gamma                     90
_cell_formula_units_Z                 4
_cell_volume                          919.79
_symmetry_cell_setting                orthorhombic
_symmetry_space_group_name_H-M        Pn21a
_symmetry_Int_Tables_number           33

loop_
_symmetry_equiv_pos_site_id
_symmetry_equiv_pos_as_xyz
1 x,y,z
2 -x,y+1/2,-z
3 -x+1/2,y+1/2,z+1/2
4 x+1/2,y,-z+1/2

loop_
_atom_site_label
_atom_site_type_symbol
_atom_site_fract_x
_atom_site_fract_y
_atom_site_fract_z
_atom_site_U_iso_or_equiv
_atom_site_symmetry_multiplicity
_atom_site_Wyckoff_symbol
_atom_site_occupancy
Co1 Co 0.8943 0.373 0.1789 0.0199 . . 1.0
Cl2 Cl 1.0238 0.381 -0.036 0.0199 . . 1.0
Cl3 Cl 0.8588 0.119 0.654 0.0199 . . 1.0
Cl4 Cl 0.8479 0.623 0.66 0.0199 . . 1.0
N5 N 0.986 0.375 0.406 0.0199 . . 1.0
N6 N 0.791 0.37 0.361 0.0199 . . 1.0
N7 N 0.798 0.354 -0.034 0.0199 . . 1.0
N8 N 0.89 0.173 0.157 0.0199 . . 1.0
N9 N 0.906 0.554 0.188 0.0199 . . 1.0
H10 H 1.019 0.449 0.415 0.0239 . . 1.0
H11 H 0.9449 0.364 0.5094 0.0239 . . 1.0
H12 H 1.031 0.311 0.396 0.0239 . . 1.0
H13 H 0.889 0.5895 0.071 0.0239 . . 1.0
H14 H 0.862 0.583 0.278 0.0239 . . 1.0
H15 H 0.9678 0.5758 0.224 0.0239 . . 1.0
H16 H 0.812 0.314 0.453 0.0239 . . 1.0
H17 H 0.786 0.449 0.414 0.0239 . . 1.0
H18 H 0.7328 0.348 0.305 0.0239 . . 1.0
H19 H 0.9496 0.1414 0.194 0.0239 . . 1.0
H20 H 0.843 0.1443 0.24 0.0239 . . 1.0
H21 H 0.874 0.1465 0.035 0.0239 . . 1.0
H22 H 0.8204 0.399 -0.138 0.0239 . . 1.0
H23 H 0.793 0.2705 -0.065 0.0239 . . 1.0
H24 H 0.7382 0.383 0.006 0.0239 . . 1.0

