data_00-070-0128
# Copyright 2025 International Centre for Diffraction Data. All rights reserved.

_audit_creation_date                  2025-07-06
_audit_creation_method                'Generated by PDF-5+ 2025 4.25.0.2'

_chemical_name_systematic             'Calcium Dysprosium Phosphate'
_chemical_formula_moiety              'Ca9 Dy ( P O4 )7'
_chemical_formula_sum                 'Ca9 Dy O28 P7'
_chemical_formula_weight              1187.99

_cell_length_a                        10.4250(3)
_cell_length_b                        10.4250(3)
_cell_length_c                        37.301(2)
_cell_angle_alpha                     90
_cell_angle_beta                      90
_cell_angle_gamma                     120
_cell_formula_units_Z                 6
_cell_volume                          3510.78
_symmetry_cell_setting                hexagonal
_symmetry_space_group_name_H-M        R3cH
_symmetry_Int_Tables_number           161

loop_
_symmetry_equiv_pos_site_id
_symmetry_equiv_pos_as_xyz
1 x,y,z
2 -y,x-y,z
3 -x+y,-x,z
4 -y,-x,z+1/2
5 x,x-y,z+1/2
6 -x+y,y,z+1/2
7 x+2/3,y+1/3,z+1/3
8 -y+2/3,x-y+1/3,z+1/3
9 -x+y+2/3,-x+1/3,z+1/3
10 -y+2/3,-x+1/3,z+5/6
11 x+2/3,x-y+1/3,z+5/6
12 -x+y+2/3,y+1/3,z+5/6
13 x+1/3,y+2/3,z+2/3
14 -y+1/3,x-y+2/3,z+2/3
15 -x+y+1/3,-x+2/3,z+2/3
16 -y+1/3,-x+2/3,z+1/6
17 x+1/3,x-y+2/3,z+1/6
18 -x+y+1/3,y+2/3,z+1/6

loop_
_atom_site_label
_atom_site_type_symbol
_atom_site_fract_x
_atom_site_fract_y
_atom_site_fract_z
_atom_site_U_iso_or_equiv
_atom_site_symmetry_multiplicity
_atom_site_Wyckoff_symbol
_atom_site_occupancy
Ca1 Ca 0.3828 1.1831 0.9987 0.007 . . 0.848
Dy2 Dy 0.3828 1.1831 0.9987 0.007 . . 0.152
Ca3 Ca 0.62 0.808 0.9656 0.007 . . 0.891
Dy4 Dy 0.62 0.808 0.9656 0.007 . . 0.109
Ca5 Ca 0.828 1.222 0.8946 0.007 . . 0.939
Dy6 Dy 0.828 1.222 0.8946 0.007 . . 0.061
Ca7 Ca 0.3333 0.6667 0.9 0.007 . . 1.0
P8 P 1.0 1.0 0.9999 0.013 . . 1.0
P9 P 0.683 0.831 0.8667 0.013 . . 1.0
P10 P 0.522 1.01 0.9326 0.013 . . 1.0
O11 O 0.723 0.826 0.9085 0.002 . . 1.0
O12 O 0.732 0.739 0.8472 0.002 . . 1.0
O13 O 0.758 0.994 0.8563 0.002 . . 1.0
O14 O 0.517 0.761 0.8614 0.002 . . 1.0
O15 O 0.434 0.844 0.9452 0.002 . . 1.0
O16 O 0.451 1.097 0.9483 0.002 . . 1.0
O17 O 0.673 1.065 0.948 0.002 . . 1.0
O18 O 0.527 1.026 0.8939 0.002 . . 1.0
O19 O 0.86 0.867 0.9914 0.002 . . 1.0
O20 O 1.0 1.0 1.042 0.002 . . 1.0

