data_00-068-0285
# Copyright 2025 International Centre for Diffraction Data. All rights reserved.

_audit_creation_date                  2025-07-06
_audit_creation_method                'Generated by PDF-5+ 2025 4.25.0.2'

_chemical_name_systematic             'Uranium Oxide'
_chemical_formula_moiety              'U O2.34'
_chemical_formula_sum                 'O2.34 U'
_chemical_formula_weight              275.47

_cell_length_a                        5.38006(4)
_cell_length_b                        5.38006(4)
_cell_length_c                        5.54930(6)
_cell_angle_alpha                     90.0
_cell_angle_beta                      90.0
_cell_angle_gamma                     90.0
_cell_formula_units_Z                 4
_cell_volume                          160.62
_symmetry_cell_setting                tetragonal
_symmetry_space_group_name_H-M        P42/nnm
_symmetry_Int_Tables_number           134

loop_
_symmetry_equiv_pos_site_id
_symmetry_equiv_pos_as_xyz
1 x,y,z
2 -x,-y,-z
3 -x,y+1/2,z+1/2
4 x,-y+1/2,-z+1/2
5 x+1/2,-y,z+1/2
6 -x+1/2,y,-z+1/2
7 -x+1/2,-y+1/2,z
8 x+1/2,y+1/2,-z
9 y+1/2,x+1/2,z
10 -y+1/2,-x+1/2,-z
11 -y+1/2,x,z+1/2
12 y+1/2,-x,-z+1/2
13 y,-x+1/2,z+1/2
14 -y,x+1/2,-z+1/2
15 -y,-x,z
16 y,x,-z

loop_
_atom_site_label
_atom_site_type_symbol
_atom_site_fract_x
_atom_site_fract_y
_atom_site_fract_z
_atom_site_U_iso_or_equiv
_atom_site_symmetry_multiplicity
_atom_site_Wyckoff_symbol
_atom_site_occupancy
U1 U 0.0 0.0 0.0 0.00677 . . 1.0
O2 O 0.25 0.75 0.25 0.0065 . . 1.0
O3 O 0.75 0.25 0.25 0.0065 . . 1.0
O4 O 0.25 0.25 0.25 0.0065 . . 1.0
O5 O 0.0 0.0 0.5 0.0065 . . 0.34

