data_00-063-0412
# Copyright 2025 International Centre for Diffraction Data. All rights reserved.

_audit_creation_date                  2025-07-06
_audit_creation_method                'Generated by PDF-5+ 2025 4.25.0.2'

_chemical_name_systematic             'Cobalt Erbium Germanium'
_chemical_name_common                 'erbium cobalt germanide'
_chemical_formula_moiety              'Co Er2 Ge2'
_chemical_formula_sum                 'Co Er2 Ge2'
_chemical_formula_weight              538.71

_cell_length_a                        10.3690(8)
_cell_length_b                        4.1447(6)
_cell_length_c                        10.0292(7)
_cell_angle_alpha                     90.0
_cell_angle_beta                      117.611(5)
_cell_angle_gamma                     90.0
_cell_formula_units_Z                 4
_cell_volume                          381.93
_symmetry_cell_setting                monoclinic
_symmetry_space_group_name_H-M        C12/m1
_symmetry_Int_Tables_number           12

loop_
_symmetry_equiv_pos_site_id
_symmetry_equiv_pos_as_xyz
1 x,y,z
2 -x,-y,-z
3 x,-y,z
4 -x,y,-z
5 x+1/2,y+1/2,z
6 -x+1/2,-y+1/2,-z
7 x+1/2,-y+1/2,z
8 -x+1/2,y+1/2,-z

loop_
_atom_site_label
_atom_site_type_symbol
_atom_site_fract_x
_atom_site_fract_y
_atom_site_fract_z
_atom_site_U_iso_or_equiv
_atom_site_symmetry_multiplicity
_atom_site_Wyckoff_symbol
_atom_site_occupancy
Er1 Er 0.0063 0.0 0.3228 . 4 i 1.0
Er2 Er 0.2029 0.0 0.1205 . 4 i 1.0
Co3 Co 0.2684 0.0 0.6532 . 4 i 1.0
Ge4 Ge 0.3469 0.0 0.4465 . 4 i 1.0
Ge5 Ge 0.4822 0.0 0.1112 . 4 i 1.0

