data_00-070-0123
# Copyright 2025 International Centre for Diffraction Data. All rights reserved.

_audit_creation_date                  2025-07-06
_audit_creation_method                'Generated by PDF-5+ 2025 4.25.0.2'

_chemical_name_systematic             'Calcium Lanthanum Phosphate'
_chemical_formula_moiety              'Ca9 La ( P O4 )7'
_chemical_formula_sum                 'Ca9 La O28 P7'
_chemical_formula_weight              1164.40

_cell_length_a                        10.4695(3)
_cell_length_b                        10.4695(3)
_cell_length_c                        37.500(2)
_cell_angle_alpha                     90
_cell_angle_beta                      90
_cell_angle_gamma                     120
_cell_formula_units_Z                 6
_cell_volume                          3559.70
_symmetry_cell_setting                hexagonal
_symmetry_space_group_name_H-M        R3cH
_symmetry_Int_Tables_number           161

loop_
_symmetry_equiv_pos_site_id
_symmetry_equiv_pos_as_xyz
1 x,y,z
2 -y,x-y,z
3 -x+y,-x,z
4 -y,-x,z+1/2
5 x,x-y,z+1/2
6 -x+y,y,z+1/2
7 x+2/3,y+1/3,z+1/3
8 -y+2/3,x-y+1/3,z+1/3
9 -x+y+2/3,-x+1/3,z+1/3
10 -y+2/3,-x+1/3,z+5/6
11 x+2/3,x-y+1/3,z+5/6
12 -x+y+2/3,y+1/3,z+5/6
13 x+1/3,y+2/3,z+2/3
14 -y+1/3,x-y+2/3,z+2/3
15 -x+y+1/3,-x+2/3,z+2/3
16 -y+1/3,-x+2/3,z+1/6
17 x+1/3,x-y+2/3,z+1/6
18 -x+y+1/3,y+2/3,z+1/6

loop_
_atom_site_label
_atom_site_type_symbol
_atom_site_fract_x
_atom_site_fract_y
_atom_site_fract_z
_atom_site_U_iso_or_equiv
_atom_site_symmetry_multiplicity
_atom_site_Wyckoff_symbol
_atom_site_occupancy
Ca1 Ca 0.48 0.9412 0.8317 0.012 . . 0.971
La2 La 0.48 0.9412 0.8317 0.012 . . 0.029
Ca3 Ca 0.6204 0.811 0.9655 0.012 . . 0.967
La4 La 0.6204 0.811 0.9655 0.012 . . 0.033
Ca5 Ca 0.8169 1.2041 0.8926 0.012 . . 0.744
La6 La 0.8169 1.2041 0.8926 0.012 . . 0.256
Ca7 Ca 0.3333 0.6667 0.8977 0.012 . . 1.0
P8 P 1.0 1.0 1.0007 0.015 . . 1.0
P9 P 0.6828 0.843 0.8643 0.015 . . 1.0
P10 P 0.528 1.011 0.931 0.015 . . 1.0
O11 O 0.721 0.816 0.9055 0.004 . . 1.0
O12 O 0.732 0.738 0.8481 0.004 . . 1.0
O13 O 0.753 0.995 0.8543 0.004 . . 1.0
O14 O 0.525 0.756 0.8604 0.004 . . 1.0
O15 O 0.428 0.846 0.9443 0.004 . . 1.0
O16 O 0.454 1.108 0.9465 0.004 . . 1.0
O17 O 0.678 1.067 0.9487 0.004 . . 1.0
O18 O 0.523 1.029 0.8932 0.004 . . 1.0
O19 O 0.862 0.874 0.9923 0.004 . . 1.0
O20 O 1.0 1.0 1.0423 0.004 . . 1.0

