data_00-056-0419
# Copyright 2025 International Centre for Diffraction Data. All rights reserved.

_audit_creation_date                  2025-07-04
_audit_creation_method                'Generated by PDF-5+ 2025 4.25.0.2'

_chemical_name_systematic             'Aluminum Cerium Neodymium Oxide'
_chemical_formula_moiety              'Ce0.5 Nd0.5 Al O3'
_chemical_formula_sum                 'Al Ce0.5 Nd0.5 O3'
_chemical_formula_weight              217.16

_cell_length_a                        5.3106(2)
_cell_length_b                        7.4881(3)
_cell_length_c                        5.3427(2)
_cell_angle_alpha                     90.0
_cell_angle_beta                      90.271(3)
_cell_angle_gamma                     90.0
_cell_formula_units_Z                 4
_cell_volume                          212.46
_symmetry_cell_setting                monoclinic
_symmetry_space_group_name_H-M        I12/m1
_symmetry_Int_Tables_number           12

loop_
_symmetry_equiv_pos_site_id
_symmetry_equiv_pos_as_xyz
1 x,y,z
2 -x,-y,-z
3 -x,y,-z
4 x,-y,z
5 x+1/2,y+1/2,z+1/2
6 -x+1/2,-y+1/2,-z+1/2
7 -x+1/2,y+1/2,-z+1/2
8 x+1/2,-y+1/2,z+1/2

loop_
_atom_site_label
_atom_site_type_symbol
_atom_site_fract_x
_atom_site_fract_y
_atom_site_fract_z
_atom_site_B_iso_or_equiv
_atom_site_symmetry_multiplicity
_atom_site_Wyckoff_symbol
_atom_site_occupancy
Ce1 Ce 0.2482 0.0 0.7521 0.38 4 i 0.5
Nd2 Nd 0.2482 0.0 0.7521 0.38 4 i 0.5
Al3 Al 0.25 0.25 0.25 0.24 4 e 1.0
O4 O 0.262 0.0 0.298 0.9 4 i 1.0
O5 O 0.0 0.205 0.0 0.8 4 g 1.0
O6 O 0.5 0.237 0.0 1.1 4 h 1.0

