data_00-055-0119
# Copyright 2025 International Centre for Diffraction Data. All rights reserved.

_audit_creation_date                  2025-07-04
_audit_creation_method                'Generated by PDF-5+ 2025 4.25.0.2'

_chemical_name_systematic             'Lithium Ytterbium Molybdenum Oxide'
_chemical_formula_moiety              'Li Yb ( Mo O4 )2'
_chemical_formula_sum                 'Li Mo2 O8 Yb'
_chemical_formula_weight              499.91
_chemical_melting_point               1173.0

# Atomic parameters are cross-referenced from PDF entry 04-005-9998

_cell_length_a                        5.105
_cell_length_b                        5.105
_cell_length_c                        11.08
_cell_angle_alpha                     90
_cell_angle_beta                      90
_cell_angle_gamma                     90
_cell_formula_units_Z                 4
_cell_volume                          288.76
_symmetry_cell_setting                tetragonal
_symmetry_space_group_name_H-M        I41/a
_symmetry_Int_Tables_number           88

loop_
_symmetry_equiv_pos_site_id
_symmetry_equiv_pos_as_xyz
1 x,y,z
2 -x,-y,-z
3 -x+1/2,-y,z+1/2
4 x+1/2,y,-z+1/2
5 -y+3/4,x+1/4,z+1/4
6 y+1/4,-x+3/4,-z+3/4
7 y+3/4,-x+3/4,z+3/4
8 -y+1/4,x+1/4,-z+1/4
9 x+1/2,y+1/2,z+1/2
10 -x+1/2,-y+1/2,-z+1/2
11 -x,-y+1/2,z
12 x,y+1/2,-z
13 -y+1/4,x+3/4,z+3/4
14 y+3/4,-x+1/4,-z+1/4
15 y+1/4,-x+1/4,z+1/4
16 -y+3/4,x+3/4,-z+3/4

loop_
_atom_site_label
_atom_site_type_symbol
_atom_site_fract_x
_atom_site_fract_y
_atom_site_fract_z
_atom_site_U_iso_or_equiv
_atom_site_symmetry_multiplicity
_atom_site_Wyckoff_symbol
_atom_site_occupancy
O1 O 0.1507 0.0086 0.2106 . 16 f 1.0
Li2 Li 0.0 0.25 0.625 . 4 b 0.5
Yb3 Yb 0.0 0.25 0.625 . 4 b 0.5
Mo4 Mo 0.0 0.25 0.125 . 4 a 1.0

