data_00-058-0585
# Copyright 2025 International Centre for Diffraction Data. All rights reserved.

_audit_creation_date                  2025-07-04
_audit_creation_method                'Generated by PDF-5+ 2025 4.25.0.2'

_chemical_name_systematic             'Calcium Holmium Chromium Manganese Oxide'
_chemical_formula_moiety              '( Ho0.53 Ca0.47 ) ( Mn0.97 Cr0.03 ) O3'
_chemical_formula_sum                 'Ca0.47 Cr0.03 Ho0.53 Mn0.97 O3'
_chemical_formula_weight              209.10

# Atomic parameters are cross-referenced from PDF entry 04-011-8037

_cell_length_a                        5.4702(3)
_cell_length_b                        7.4487(4)
_cell_length_c                        5.2983(3)
_cell_angle_alpha                     90
_cell_angle_beta                      90
_cell_angle_gamma                     90
_cell_formula_units_Z                 4
_cell_volume                          215.88
_symmetry_cell_setting                orthorhombic
_symmetry_space_group_name_H-M        Pnma
_symmetry_Int_Tables_number           62

loop_
_symmetry_equiv_pos_site_id
_symmetry_equiv_pos_as_xyz
1 x,y,z
2 -x,-y,-z
3 x+1/2,-y+1/2,-z+1/2
4 -x+1/2,y+1/2,z+1/2
5 -x,y+1/2,-z
6 x,-y+1/2,z
7 -x+1/2,-y,z+1/2
8 x+1/2,y,-z+1/2

loop_
_atom_site_label
_atom_site_type_symbol
_atom_site_fract_x
_atom_site_fract_y
_atom_site_fract_z
_atom_site_U_iso_or_equiv
_atom_site_symmetry_multiplicity
_atom_site_Wyckoff_symbol
_atom_site_occupancy
Ho1 Ho 0.0579 0.25 0.9817 . 4 c 0.53
Ca2 Ca 0.0579 0.25 0.9817 . 4 c 0.47
Mn3 Mn 0.0 0.0 0.5 . 4 b 0.97
Cr4 Cr 0.0 0.0 0.5 . 4 b 0.03
O5 O 0.966 0.25 0.393 . 4 c 1.0
O6 O 0.709 0.956 0.293 . 8 d 1.0

