data_00-055-0894
# Copyright 2025 International Centre for Diffraction Data. All rights reserved.

_audit_creation_date                  2025-07-04
_audit_creation_method                'Generated by PDF-5+ 2025 4.25.0.2'

_chemical_name_systematic             'Chromium Thallium Molybdenum Oxide'
_chemical_formula_moiety              'Tl Cr ( Mo O4 )2'
_chemical_formula_sum                 'Cr Mo2 O8 Tl'
_chemical_formula_weight              576.27

# Atomic parameters are cross-referenced from PDF entry 04-011-9683

_cell_length_a                        14.6930(1)
_cell_length_b                        5.6283(1)
_cell_length_c                        8.7491(1)
_cell_angle_alpha                     90
_cell_angle_beta                      90
_cell_angle_gamma                     90
_cell_formula_units_Z                 4
_cell_volume                          723.52
_symmetry_cell_setting                orthorhombic
_symmetry_space_group_name_H-M        Pnma
_symmetry_Int_Tables_number           62

loop_
_symmetry_equiv_pos_site_id
_symmetry_equiv_pos_as_xyz
1 x,y,z
2 -x,-y,-z
3 x+1/2,-y+1/2,-z+1/2
4 -x+1/2,y+1/2,z+1/2
5 -x,y+1/2,-z
6 x,-y+1/2,z
7 -x+1/2,-y,z+1/2
8 x+1/2,y,-z+1/2

loop_
_atom_site_label
_atom_site_type_symbol
_atom_site_fract_x
_atom_site_fract_y
_atom_site_fract_z
_atom_site_B_iso_or_equiv
_atom_site_symmetry_multiplicity
_atom_site_Wyckoff_symbol
_atom_site_occupancy
Tl1 Tl 0.1106 0.75 0.5566 3.1 4 c 1.0
Cr2 Cr 0.1194 0.25 0.1783 1.1 4 c 1.0
Mo3 Mo 0.2806 0.25 0.4967 1.4 4 c 1.0
Mo4 Mo 0.0287 0.25 0.7951 1.1 4 c 1.0
O5 O 0.139 0.75 0.862 2.3 4 c 1.0
O6 O 0.174 0.25 0.366 2.3 4 c 1.0
O7 O 0.205 0.004 0.093 2.3 8 d 1.0
O8 O 0.129 0.25 0.675 1.0 4 c 1.0
O9 O 0.057 0.25 0.988 1.0 4 c 1.0
O10 O 0.034 0.507 0.248 1.0 8 d 1.0

