data_00-069-0847
# Copyright 2025 International Centre for Diffraction Data. All rights reserved.

_audit_creation_date                  2025-07-06
_audit_creation_method                'Generated by PDF-5+ 2025 4.25.0.2'

_chemical_name_systematic             'Thulium Nickel Aluminum'
_chemical_formula_moiety              'Tm14 Ni3 Al3'
_chemical_formula_sum                 'Al3 Ni3 Tm14'
_chemical_formula_weight              2622.10

_cell_length_a                        9.3286(4)
_cell_length_b                        9.3286(4)
_cell_length_c                        22.453(2)
_cell_angle_alpha                     90.0
_cell_angle_beta                      90.0
_cell_angle_gamma                     90.0
_cell_formula_units_Z                 4
_cell_volume                          1953.92
_symmetry_cell_setting                tetragonal
_symmetry_space_group_name_H-M        P42/nmc
_symmetry_Int_Tables_number           137

loop_
_symmetry_equiv_pos_site_id
_symmetry_equiv_pos_as_xyz
1 x,y,z
2 -x,-y,-z
3 -x+1/2,y,z
4 x+1/2,-y,-z
5 x,-y+1/2,z
6 -x,y+1/2,-z
7 -x+1/2,-y+1/2,z
8 x+1/2,y+1/2,-z
9 y,x,z+1/2
10 -y,-x,-z+1/2
11 -y+1/2,x,z+1/2
12 y+1/2,-x,-z+1/2
13 y,-x+1/2,z+1/2
14 -y,x+1/2,-z+1/2
15 -y+1/2,-x+1/2,z+1/2
16 y+1/2,x+1/2,-z+1/2

loop_
_atom_site_label
_atom_site_type_symbol
_atom_site_fract_x
_atom_site_fract_y
_atom_site_fract_z
_atom_site_B_iso_or_equiv
_atom_site_symmetry_multiplicity
_atom_site_Wyckoff_symbol
_atom_site_occupancy
Tm1 Tm 0.0582 0.0665 0.3953 0.54 . . 1.0
Tm2 Tm 0.25 0.0634 0.0344 0.73 . . 1.0
Tm3 Tm 0.25 0.5391 0.1936 1.11 . . 1.0
Tm4 Tm 0.25 0.5626 0.5154 0.88 . . 1.0
Tm5 Tm 0.5643 -0.5643 0.25 0.75 . . 1.0
Tm6 Tm 0.25 0.25 0.2867 0.86 . . 1.0
Tm7 Tm 0.75 0.25 0.143 0.99 . . 1.0
Ni8 Ni 0.25 0.533 0.311 0.93 . . 1.0
Ni9 Ni 0.25 0.25 0.447 0.94 . . 1.0
Al10 Al 0.25 0.07 0.641 0.92 . . 1.0
Al11 Al 0.75 0.25 0.579 0.95 . . 1.0

