data_00-069-0399
# Copyright 2025 International Centre for Diffraction Data. All rights reserved.

_audit_creation_date                  2025-07-06
_audit_creation_method                'Generated by PDF-5+ 2025 4.25.0.2'

_chemical_name_systematic             'Ruthenium Yttrium Oxide'
_chemical_name_common                 'yttrium ruthenate'
_chemical_formula_moiety              'Y2 Ru2 O7'
_chemical_formula_sum                 'O7 Ru2 Y2'
_chemical_formula_weight              491.94

_cell_length_a                        10.1909
_cell_length_b                        10.1909
_cell_length_c                        10.1909
_cell_angle_alpha                     90.0
_cell_angle_beta                      90.0
_cell_angle_gamma                     90.0
_cell_formula_units_Z                 8
_cell_volume                          1039.51
_symmetry_cell_setting                cubic
_symmetry_space_group_name_H-M        Fd-3m
_symmetry_Int_Tables_number           227

loop_
_symmetry_equiv_pos_site_id
_symmetry_equiv_pos_as_xyz
1 x,y,z
2 z,x,y
3 y,z,x
4 x,z,y
5 y,x,z
6 z,y,x
7 x,-y,-z
8 z,-x,-y
9 y,-z,-x
10 x,-z,-y
11 y,-x,-z
12 z,-y,-x
13 -x,y,-z
14 -z,x,-y
15 -y,z,-x
16 -x,z,-y
17 -y,x,-z
18 -z,y,-x
19 -x,-y,z
20 -z,-x,y
21 -y,-z,x
22 -x,-z,y
23 -y,-x,z
24 -z,-y,x
25 -x+1/4,-y+1/4,-z+1/4
26 -z+1/4,-x+1/4,-y+1/4
27 -y+1/4,-z+1/4,-x+1/4
28 -x+1/4,y+1/4,z+1/4
29 -z+1/4,x+1/4,y+1/4
30 -y+1/4,z+1/4,x+1/4
31 x+1/4,-y+1/4,z+1/4
32 z+1/4,-x+1/4,y+1/4
33 y+1/4,-z+1/4,x+1/4
34 x+1/4,y+1/4,-z+1/4
35 z+1/4,x+1/4,-y+1/4
36 y+1/4,z+1/4,-x+1/4
37 -x+1/4,-z+1/4,-y+1/4
38 -y+1/4,-x+1/4,-z+1/4
39 -z+1/4,-y+1/4,-x+1/4
40 -x+1/4,z+1/4,y+1/4
41 -y+1/4,x+1/4,z+1/4
42 -z+1/4,y+1/4,x+1/4
43 x+1/4,-z+1/4,y+1/4
44 y+1/4,-x+1/4,z+1/4
45 z+1/4,-y+1/4,x+1/4
46 x+1/4,z+1/4,-y+1/4
47 y+1/4,x+1/4,-z+1/4
48 z+1/4,y+1/4,-x+1/4
49 x,y+1/2,z+1/2
50 z,x+1/2,y+1/2
51 y,z+1/2,x+1/2
52 x,z+1/2,y+1/2
53 y,x+1/2,z+1/2
54 z,y+1/2,x+1/2
55 x,-y+1/2,-z+1/2
56 z,-x+1/2,-y+1/2
57 y,-z+1/2,-x+1/2
58 x,-z+1/2,-y+1/2
59 y,-x+1/2,-z+1/2
60 z,-y+1/2,-x+1/2
61 -x,y+1/2,-z+1/2
62 -z,x+1/2,-y+1/2
63 -y,z+1/2,-x+1/2
64 -x,z+1/2,-y+1/2
65 -y,x+1/2,-z+1/2
66 -z,y+1/2,-x+1/2
67 -x,-y+1/2,z+1/2
68 -z,-x+1/2,y+1/2
69 -y,-z+1/2,x+1/2
70 -x,-z+1/2,y+1/2
71 -y,-x+1/2,z+1/2
72 -z,-y+1/2,x+1/2
73 -x+1/4,-y+3/4,-z+3/4
74 -z+1/4,-x+3/4,-y+3/4
75 -y+1/4,-z+3/4,-x+3/4
76 -x+1/4,y+3/4,z+3/4
77 -z+1/4,x+3/4,y+3/4
78 -y+1/4,z+3/4,x+3/4
79 x+1/4,-y+3/4,z+3/4
80 z+1/4,-x+3/4,y+3/4
81 y+1/4,-z+3/4,x+3/4
82 x+1/4,y+3/4,-z+3/4
83 z+1/4,x+3/4,-y+3/4
84 y+1/4,z+3/4,-x+3/4
85 -x+1/4,-z+3/4,-y+3/4
86 -y+1/4,-x+3/4,-z+3/4
87 -z+1/4,-y+3/4,-x+3/4
88 -x+1/4,z+3/4,y+3/4
89 -y+1/4,x+3/4,z+3/4
90 -z+1/4,y+3/4,x+3/4
91 x+1/4,-z+3/4,y+3/4
92 y+1/4,-x+3/4,z+3/4
93 z+1/4,-y+3/4,x+3/4
94 x+1/4,z+3/4,-y+3/4
95 y+1/4,x+3/4,-z+3/4
96 z+1/4,y+3/4,-x+3/4
97 x+1/2,y,z+1/2
98 z+1/2,x,y+1/2
99 y+1/2,z,x+1/2
100 x+1/2,z,y+1/2
101 y+1/2,x,z+1/2
102 z+1/2,y,x+1/2
103 x+1/2,-y,-z+1/2
104 z+1/2,-x,-y+1/2
105 y+1/2,-z,-x+1/2
106 x+1/2,-z,-y+1/2
107 y+1/2,-x,-z+1/2
108 z+1/2,-y,-x+1/2
109 -x+1/2,y,-z+1/2
110 -z+1/2,x,-y+1/2
111 -y+1/2,z,-x+1/2
112 -x+1/2,z,-y+1/2
113 -y+1/2,x,-z+1/2
114 -z+1/2,y,-x+1/2
115 -x+1/2,-y,z+1/2
116 -z+1/2,-x,y+1/2
117 -y+1/2,-z,x+1/2
118 -x+1/2,-z,y+1/2
119 -y+1/2,-x,z+1/2
120 -z+1/2,-y,x+1/2
121 -x+3/4,-y+1/4,-z+3/4
122 -z+3/4,-x+1/4,-y+3/4
123 -y+3/4,-z+1/4,-x+3/4
124 -x+3/4,y+1/4,z+3/4
125 -z+3/4,x+1/4,y+3/4
126 -y+3/4,z+1/4,x+3/4
127 x+3/4,-y+1/4,z+3/4
128 z+3/4,-x+1/4,y+3/4
129 y+3/4,-z+1/4,x+3/4
130 x+3/4,y+1/4,-z+3/4
131 z+3/4,x+1/4,-y+3/4
132 y+3/4,z+1/4,-x+3/4
133 -x+3/4,-z+1/4,-y+3/4
134 -y+3/4,-x+1/4,-z+3/4
135 -z+3/4,-y+1/4,-x+3/4
136 -x+3/4,z+1/4,y+3/4
137 -y+3/4,x+1/4,z+3/4
138 -z+3/4,y+1/4,x+3/4
139 x+3/4,-z+1/4,y+3/4
140 y+3/4,-x+1/4,z+3/4
141 z+3/4,-y+1/4,x+3/4
142 x+3/4,z+1/4,-y+3/4
143 y+3/4,x+1/4,-z+3/4
144 z+3/4,y+1/4,-x+3/4
145 x+1/2,y+1/2,z
146 z+1/2,x+1/2,y
147 y+1/2,z+1/2,x
148 x+1/2,z+1/2,y
149 y+1/2,x+1/2,z
150 z+1/2,y+1/2,x
151 x+1/2,-y+1/2,-z
152 z+1/2,-x+1/2,-y
153 y+1/2,-z+1/2,-x
154 x+1/2,-z+1/2,-y
155 y+1/2,-x+1/2,-z
156 z+1/2,-y+1/2,-x
157 -x+1/2,y+1/2,-z
158 -z+1/2,x+1/2,-y
159 -y+1/2,z+1/2,-x
160 -x+1/2,z+1/2,-y
161 -y+1/2,x+1/2,-z
162 -z+1/2,y+1/2,-x
163 -x+1/2,-y+1/2,z
164 -z+1/2,-x+1/2,y
165 -y+1/2,-z+1/2,x
166 -x+1/2,-z+1/2,y
167 -y+1/2,-x+1/2,z
168 -z+1/2,-y+1/2,x
169 -x+3/4,-y+3/4,-z+1/4
170 -z+3/4,-x+3/4,-y+1/4
171 -y+3/4,-z+3/4,-x+1/4
172 -x+3/4,y+3/4,z+1/4
173 -z+3/4,x+3/4,y+1/4
174 -y+3/4,z+3/4,x+1/4
175 x+3/4,-y+3/4,z+1/4
176 z+3/4,-x+3/4,y+1/4
177 y+3/4,-z+3/4,x+1/4
178 x+3/4,y+3/4,-z+1/4
179 z+3/4,x+3/4,-y+1/4
180 y+3/4,z+3/4,-x+1/4
181 -x+3/4,-z+3/4,-y+1/4
182 -y+3/4,-x+3/4,-z+1/4
183 -z+3/4,-y+3/4,-x+1/4
184 -x+3/4,z+3/4,y+1/4
185 -y+3/4,x+3/4,z+1/4
186 -z+3/4,y+3/4,x+1/4
187 x+3/4,-z+3/4,y+1/4
188 y+3/4,-x+3/4,z+1/4
189 z+3/4,-y+3/4,x+1/4
190 x+3/4,z+3/4,-y+1/4
191 y+3/4,x+3/4,-z+1/4
192 z+3/4,y+3/4,-x+1/4

loop_
_atom_site_label
_atom_site_type_symbol
_atom_site_fract_x
_atom_site_fract_y
_atom_site_fract_z
_atom_site_U_iso_or_equiv
_atom_site_symmetry_multiplicity
_atom_site_Wyckoff_symbol
_atom_site_occupancy
Y1 Y 0.625 0.625 0.625 . . . 1.0
Ru2 Ru 0.125 0.125 0.125 . . . 1.0
O3 O 0.208 0.0 0.0 . . . 1.0
O4 O 0.5 0.5 0.5 . . . 1.0

