data_00-068-0088
# Copyright 2025 International Centre for Diffraction Data. All rights reserved.

_audit_creation_date                  2025-07-06
_audit_creation_method                'Generated by PDF-5+ 2025 4.25.0.2'

_chemical_name_systematic             'Barium Tungstate'
_chemical_name_common                 'C.I. Pigment White 13, tungsten white'
_chemical_formula_moiety              'Ba ( W O4 )'
_chemical_formula_sum                 'Ba O4 W'
_chemical_formula_weight              385.16

_cell_length_a                        5.6043(1)
_cell_length_b                        5.6043(1)
_cell_length_c                        12.7338(4)
_cell_angle_alpha                     90.0
_cell_angle_beta                      90.0
_cell_angle_gamma                     90.0
_cell_formula_units_Z                 4
_cell_volume                          399.95
_symmetry_cell_setting                tetragonal
_symmetry_space_group_name_H-M        I41/a
_symmetry_Int_Tables_number           88

loop_
_symmetry_equiv_pos_site_id
_symmetry_equiv_pos_as_xyz
1 x,y,z
2 -x,-y,-z
3 -x+1/2,-y,z+1/2
4 x+1/2,y,-z+1/2
5 -y+3/4,x+1/4,z+1/4
6 y+1/4,-x+3/4,-z+3/4
7 y+3/4,-x+3/4,z+3/4
8 -y+1/4,x+1/4,-z+1/4
9 x+1/2,y+1/2,z+1/2
10 -x+1/2,-y+1/2,-z+1/2
11 -x,-y+1/2,z
12 x,y+1/2,-z
13 -y+1/4,x+3/4,z+3/4
14 y+3/4,-x+1/4,-z+1/4
15 y+1/4,-x+1/4,z+1/4
16 -y+3/4,x+3/4,-z+3/4

loop_
_atom_site_label
_atom_site_type_symbol
_atom_site_fract_x
_atom_site_fract_y
_atom_site_fract_z
_atom_site_U_iso_or_equiv
_atom_site_symmetry_multiplicity
_atom_site_Wyckoff_symbol
_atom_site_occupancy
Ba1 Ba 0.0 0.25 0.625 0.01257 . . 1.0
W2 W 0.0 0.25 0.125 0.01195 . . 1.0
O3 O 0.24566 0.12581 0.03991 0.07832 . . 1.0

