data_00-066-0133
# Copyright 2025 International Centre for Diffraction Data. All rights reserved.

_audit_creation_date                  2025-07-06
_audit_creation_method                'Generated by PDF-5+ 2025 4.25.0.2'

_chemical_name_systematic             'Copper Gallium Oxide'
_chemical_formula_moiety              'Cu Ga O2'
_chemical_formula_sum                 'Cu Ga O2'
_chemical_formula_weight              165.27

_cell_length_a                        5.46338
_cell_length_b                        6.61505
_cell_length_c                        5.27774
_cell_angle_alpha                     90.0
_cell_angle_beta                      90.0
_cell_angle_gamma                     90.0
_cell_formula_units_Z                 4
_cell_volume                          190.74
_symmetry_cell_setting                orthorhombic
_symmetry_space_group_name_H-M        Pna21
_symmetry_Int_Tables_number           33

loop_
_symmetry_equiv_pos_site_id
_symmetry_equiv_pos_as_xyz
1 x,y,z
2 -x,-y,z+1/2
3 -x+1/2,y+1/2,z+1/2
4 x+1/2,-y+1/2,z

loop_
_atom_site_label
_atom_site_type_symbol
_atom_site_fract_x
_atom_site_fract_y
_atom_site_fract_z
_atom_site_B_iso_or_equiv
_atom_site_symmetry_multiplicity
_atom_site_Wyckoff_symbol
_atom_site_occupancy
Cu1 Cu 0.42619 0.12396 0.49896 0.91187 . . 1.0
Ga2 Ga 0.06598 0.12071 0.02404 0.91187 . . 1.0
O3 O 0.40303 0.13362 0.90962 0.51425 . . 1.0
O4 O 0.07042 0.11257 0.36328 0.51425 . . 1.0

