data_00-073-0999
# Copyright 2025 International Centre for Diffraction Data. All rights reserved.

_audit_creation_date                  2025-07-06
_audit_creation_method                'Generated by PDF-5+ 2025 4.25.0.2'

_chemical_name_systematic             'Strontium Zirconium Oxide'
_chemical_formula_moiety              'Sr Zr O3'
_chemical_formula_sum                 'O3 Sr Zr'
_chemical_formula_weight              226.84

_cell_length_a                        5.7854
_cell_length_b                        5.8126
_cell_length_c                        8.1940
_cell_angle_alpha                     90.0
_cell_angle_beta                      90.0
_cell_angle_gamma                     90.0
_cell_formula_units_Z                 4
_cell_volume                          275.55
_symmetry_cell_setting                orthorhombic
_symmetry_space_group_name_H-M        Pbnm
_symmetry_Int_Tables_number           62

loop_
_symmetry_equiv_pos_site_id
_symmetry_equiv_pos_as_xyz
1 x,y,z
2 -x,-y,-z
3 -x+1/2,y+1/2,-z+1/2
4 x+1/2,-y+1/2,z+1/2
5 -x,-y,z+1/2
6 x,y,-z+1/2
7 x+1/2,-y+1/2,-z
8 -x+1/2,y+1/2,z

loop_
_atom_site_label
_atom_site_type_symbol
_atom_site_fract_x
_atom_site_fract_y
_atom_site_fract_z
_atom_site_U_iso_or_equiv
_atom_site_symmetry_multiplicity
_atom_site_Wyckoff_symbol
_atom_site_occupancy
O1 O -0.07756 -0.01553 0.25 . . . 1.0
O2 O 0.21741 0.2891 0.02818 . . . 1.0
Sr3 Sr 0.00839 0.52546 0.25 . . . 1.0
Zr4 Zr 0.0 0.0 0.0 . . . 1.0

