data_00-050-1768
# Copyright 2025 International Centre for Diffraction Data. All rights reserved.

_audit_creation_date                  2025-07-04
_audit_creation_method                'Generated by PDF-5+ 2025 4.25.0.2'

_chemical_name_systematic             'Sodium Indium Phosphate'
_chemical_name_common                 '\b-Na3 In ( P O4 )2'
_chemical_formula_moiety              'Na3 In ( P O4 )2'
_chemical_formula_sum                 'In Na3 O8 P2'
_chemical_formula_weight              373.73

# Atomic parameters are cross-referenced from PDF entry 04-011-5479

_cell_length_a                        7.127(1)
_cell_length_b                        18.220(1)
_cell_length_c                        8.616(1)
_cell_angle_alpha                     90
_cell_angle_beta                      143.36(1)
_cell_angle_gamma                     90
_cell_formula_units_Z                 4
_cell_volume                          667.70
_symmetry_cell_setting                monoclinic
_symmetry_space_group_name_H-M        P21/c
_symmetry_Int_Tables_number           14

loop_
_symmetry_equiv_pos_site_id
_symmetry_equiv_pos_as_xyz
1 x,y,z
2 -x,-y,-z
3 -x,y+1/2,-z+1/2
4 x,-y+1/2,z+1/2

loop_
_atom_site_label
_atom_site_type_symbol
_atom_site_fract_x
_atom_site_fract_y
_atom_site_fract_z
_atom_site_B_iso_or_equiv
_atom_site_symmetry_multiplicity
_atom_site_Wyckoff_symbol
_atom_site_occupancy
In1 In 0.796 0.872 0.784 0.83 4 e 1.0
Na2 Na 0.295 0.8751 0.781 1.1 4 e 1.0
Na3 Na 0.618 0.8037 0.309 1.1 4 e 1.0
Na4 Na 0.958 0.9473 0.249 1.1 4 e 1.0
P5 P 0.077 0.7121 0.8 0.3 4 e 1.0
P6 P 0.508 0.0353 0.726 0.3 4 e 1.0
O7 O 0.057 0.8002 0.813 0.9 4 e 1.0
O8 O 0.038 0.6696 0.934 0.9 4 e 1.0
O9 O 0.829 0.6916 0.51 0.9 4 e 1.0
O10 O 0.402 0.6955 0.953 0.9 4 e 1.0
O11 O 0.252 0.0664 0.463 0.9 4 e 1.0
O12 O 0.519 0.9517 0.738 0.9 4 e 1.0
O13 O 0.821 0.0704 0.867 0.9 4 e 1.0
O14 O 0.452 0.0598 0.854 0.9 4 e 1.0

