data_00-069-0348
# Copyright 2025 International Centre for Diffraction Data. All rights reserved.

_audit_creation_date                  2025-07-06
_audit_creation_method                'Generated by PDF-5+ 2025 4.25.0.2'

_chemical_name_systematic             'Bismuth Strontium Manganese Oxide'
_chemical_name_common                 'strontium bismuth manganate'
_chemical_formula_moiety              'Bi0.5 Sr0.5 Mn O3'
_chemical_formula_sum                 'Bi0.5 Mn O3 Sr0.5'
_chemical_formula_weight              251.23

_cell_length_a                        3.9017
_cell_length_b                        3.9017
_cell_length_c                        3.7869
_cell_angle_alpha                     90.0
_cell_angle_beta                      90.0
_cell_angle_gamma                     90.0
_cell_formula_units_Z                 1
_cell_volume                          57.65
_symmetry_cell_setting                tetragonal
_symmetry_space_group_name_H-M        P4mm
_symmetry_Int_Tables_number           99

loop_
_symmetry_equiv_pos_site_id
_symmetry_equiv_pos_as_xyz
1 x,y,z
2 -x,-y,z
3 -x,y,z
4 x,-y,z
5 y,x,z
6 -y,-x,z
7 -y,x,z
8 y,-x,z

loop_
_atom_site_label
_atom_site_type_symbol
_atom_site_fract_x
_atom_site_fract_y
_atom_site_fract_z
_atom_site_U_iso_or_equiv
_atom_site_symmetry_multiplicity
_atom_site_Wyckoff_symbol
_atom_site_occupancy
Bi1 Bi 0.0 0.0 0.0 . . . 0.5
Sr2 Sr 0.0 0.0 0.0 . . . 0.5
Mn3 Mn 0.5 0.5 0.54 . . . 1.0
O4 O 0.5 0.5 0.15 . . . 1.0
O5 O 0.5 0.0 0.58 . . . 1.0

