data_00-072-0468
# Copyright 2025 International Centre for Diffraction Data. All rights reserved.

_audit_creation_date                  2025-07-06
_audit_creation_method                'Generated by PDF-5+ 2025 4.25.0.2'

_chemical_name_systematic             'Hafnium Oxide'
_chemical_formula_moiety              'Hf O2'
_chemical_formula_sum                 'Hf O2'
_chemical_formula_weight              210.49

_cell_length_a                        5.11749
_cell_length_b                        5.16875
_cell_length_c                        5.29567
_cell_angle_alpha                     90.0
_cell_angle_beta                      99.1715
_cell_angle_gamma                     90.0
_cell_formula_units_Z                 4
_cell_volume                          138.29
_symmetry_cell_setting                monoclinic
_symmetry_space_group_name_H-M        P121/c1
_symmetry_Int_Tables_number           14

loop_
_symmetry_equiv_pos_site_id
_symmetry_equiv_pos_as_xyz
1 x,y,z
2 -x,-y,-z
3 -x,y+1/2,-z+1/2
4 x,-y+1/2,z+1/2

loop_
_atom_site_label
_atom_site_type_symbol
_atom_site_fract_x
_atom_site_fract_y
_atom_site_fract_z
_atom_site_U_iso_or_equiv
_atom_site_symmetry_multiplicity
_atom_site_Wyckoff_symbol
_atom_site_occupancy
Hf1 Hf 0.27564 0.0395 0.20761 . . . 1.0
O2 O 0.07479 0.33028 0.33407 . . . 1.0
O3 O 0.45485 0.74336 0.48019 . . . 1.0

