data_00-067-0285
# Copyright 2025 International Centre for Diffraction Data. All rights reserved.

_audit_creation_date                  2025-07-06
_audit_creation_method                'Generated by PDF-5+ 2025 4.25.0.2'

_chemical_name_systematic             'Calcium Strontium Lanthanum Titanium Oxide'
_chemical_formula_moiety              'La0.2 Sr0.4 Ca0.3 Ti O3'
_chemical_formula_sum                 'Ca0.3 La0.2 O3 Sr0.4 Ti'
_chemical_formula_weight              170.72

_cell_length_a                        5.4715(1)
_cell_length_b                        5.4715(1)
_cell_length_c                        7.7544(2)
_cell_angle_alpha                     90.0
_cell_angle_beta                      90.0
_cell_angle_gamma                     90.0
_cell_formula_units_Z                 4
_cell_volume                          232.15
_symmetry_cell_setting                tetragonal
_symmetry_space_group_name_H-M        I4/mcm
_symmetry_Int_Tables_number           140

loop_
_symmetry_equiv_pos_site_id
_symmetry_equiv_pos_as_xyz
1 x,y,z
2 -x,-y,-z
3 x,-y,z+1/2
4 -x,y,-z+1/2
5 x,y,-z
6 -x,-y,z
7 x,-y,-z+1/2
8 -x,y,z+1/2
9 -y,x,z
10 y,-x,-z
11 y,x,z+1/2
12 -y,-x,-z+1/2
13 -y,x,-z
14 y,-x,z
15 y,x,-z+1/2
16 -y,-x,z+1/2
17 x+1/2,y+1/2,z+1/2
18 -x+1/2,-y+1/2,-z+1/2
19 x+1/2,-y+1/2,z
20 -x+1/2,y+1/2,-z
21 x+1/2,y+1/2,-z+1/2
22 -x+1/2,-y+1/2,z+1/2
23 x+1/2,-y+1/2,-z
24 -x+1/2,y+1/2,z
25 -y+1/2,x+1/2,z+1/2
26 y+1/2,-x+1/2,-z+1/2
27 y+1/2,x+1/2,z
28 -y+1/2,-x+1/2,-z
29 -y+1/2,x+1/2,-z+1/2
30 y+1/2,-x+1/2,z+1/2
31 y+1/2,x+1/2,-z
32 -y+1/2,-x+1/2,z

loop_
_atom_site_label
_atom_site_type_symbol
_atom_site_fract_x
_atom_site_fract_y
_atom_site_fract_z
_atom_site_U_iso_or_equiv
_atom_site_symmetry_multiplicity
_atom_site_Wyckoff_symbol
_atom_site_occupancy
Ti1 Ti 0.0 0.0 0.0 0.0056 . . 1.0
La2 La 0.0 0.5 0.25 0.0054 . . 0.2
Sr3 Sr 0.0 0.5 0.25 0.0054 . . 0.4
Ca4 Ca 0.0 0.5 0.25 0.0054 . . 0.3
O5 O 0.0 0.0 0.25 0.019 . . 1.0
O6 O 0.22061 0.72061 0.0 0.0136 . . 1.0

