data_00-071-0278
# Copyright 2025 International Centre for Diffraction Data. All rights reserved.

_audit_creation_date                  2025-07-06
_audit_creation_method                'Generated by PDF-5+ 2025 4.25.0.2'

_chemical_name_systematic             'Manganese Terbium Oxide'
_chemical_formula_moiety              'Mn O3 Tb'
_chemical_formula_sum                 'Mn O3 Tb'
_chemical_formula_weight              261.86

_cell_length_a                        5.8307(2)
_cell_length_b                        7.4146(3)
_cell_length_c                        5.3031(2)
_cell_angle_alpha                     90.0
_cell_angle_beta                      90.0
_cell_angle_gamma                     90.0
_cell_formula_units_Z                 4
_cell_volume                          229.27
_symmetry_cell_setting                orthorhombic
_symmetry_space_group_name_H-M        Pnma
_symmetry_Int_Tables_number           62

loop_
_symmetry_equiv_pos_site_id
_symmetry_equiv_pos_as_xyz
1 x,y,z
2 -x,-y,-z
3 x+1/2,-y+1/2,-z+1/2
4 -x+1/2,y+1/2,z+1/2
5 -x,y+1/2,-z
6 x,-y+1/2,z
7 -x+1/2,-y,z+1/2
8 x+1/2,y,-z+1/2

loop_
_atom_site_label
_atom_site_type_symbol
_atom_site_fract_x
_atom_site_fract_y
_atom_site_fract_z
_atom_site_U_iso_or_equiv
_atom_site_symmetry_multiplicity
_atom_site_Wyckoff_symbol
_atom_site_occupancy
Tb1 Tb 0.08002 0.25 0.9836 0.0097 . . 1.0
O2 O 0.4638 0.25 0.104 0.015 . . 1.0
O3 O 0.3293 0.0521 0.7024 0.029 . . 1.0
Mn4 Mn 0.0 0.0 0.5 0.0088 . . 1.0

