data_00-061-0089
# Copyright 2025 International Centre for Diffraction Data. All rights reserved.

_audit_creation_date                  2025-07-04
_audit_creation_method                'Generated by PDF-5+ 2025 4.25.0.2'

_chemical_name_systematic             'Cerium Rhodium Silicon'
_chemical_formula_moiety              'Ce3 Rh2 Si2'
_chemical_formula_sum                 'Ce3 Rh2 Si2'
_chemical_formula_weight              682.33
_chemical_melting_point               1803.0

# Atomic parameters are cross-referenced from PDF entry 04-017-0230

_cell_length_a                        5.6910(1)
_cell_length_b                        7.9829(1)
_cell_length_c                        13.2895(2)
_cell_angle_alpha                     90
_cell_angle_beta                      90
_cell_angle_gamma                     90
_cell_formula_units_Z                 4
_cell_volume                          603.75
_symmetry_cell_setting                orthorhombic
_symmetry_space_group_name_H-M        Pbcm
_symmetry_Int_Tables_number           57

loop_
_symmetry_equiv_pos_site_id
_symmetry_equiv_pos_as_xyz
1 x,y,z
2 -x,-y,-z
3 -x,-y,z+1/2
4 x,y,-z+1/2
5 x,-y+1/2,-z
6 -x,y+1/2,z
7 -x,y+1/2,-z+1/2
8 x,-y+1/2,z+1/2

loop_
_atom_site_label
_atom_site_type_symbol
_atom_site_fract_x
_atom_site_fract_y
_atom_site_fract_z
_atom_site_B_iso_or_equiv
_atom_site_symmetry_multiplicity
_atom_site_Wyckoff_symbol
_atom_site_occupancy
Ce1 Ce 0.1403 0.3913 0.1002 1.53 8 e 1.0
Ce2 Ce 0.6418 0.2449 0.25 0.55 4 d 1.0
Rh3 Rh 0.3773 0.0347 0.0921 2.07 8 e 1.0
Si4 Si 0.14 0.1033 0.25 1.3 4 d 1.0
Si5 Si 0.64 0.25 0.0 2.9 4 c 1.0

