data_00-057-0356
# Copyright 2025 International Centre for Diffraction Data. All rights reserved.

_audit_creation_date                  2025-07-04
_audit_creation_method                'Generated by PDF-5+ 2025 4.25.0.2'

_chemical_name_systematic             'Copper Holmium Sulfide'
_chemical_formula_moiety              'Ho Cu S2'
_chemical_formula_sum                 'Cu Ho S2'
_chemical_formula_weight              292.60

# Atomic parameters are cross-referenced from PDF entry 04-012-7632

_cell_length_a                        6.2497(3)
_cell_length_b                        13.3282(5)
_cell_length_c                        3.9525(1)
_cell_angle_alpha                     90
_cell_angle_beta                      90
_cell_angle_gamma                     90
_cell_formula_units_Z                 4
_cell_volume                          329.23
_symmetry_cell_setting                orthorhombic
_symmetry_space_group_name_H-M        P212121
_symmetry_Int_Tables_number           19

loop_
_symmetry_equiv_pos_site_id
_symmetry_equiv_pos_as_xyz
1 x,y,z
2 -x+1/2,-y,z+1/2
3 x+1/2,-y+1/2,-z
4 -x,y+1/2,-z+1/2

loop_
_atom_site_label
_atom_site_type_symbol
_atom_site_fract_x
_atom_site_fract_y
_atom_site_fract_z
_atom_site_B_iso_or_equiv
_atom_site_symmetry_multiplicity
_atom_site_Wyckoff_symbol
_atom_site_occupancy
Ho1 Ho 0.2417 0.13452 0.2613 0.17 4 a 1.0
Cu2 Cu 0.6404 0.0542 0.77 0.56 4 a 1.0
S3 S 0.0104 0.0389 0.757 0.2 4 a 1.0
S4 S 0.4818 0.2103 0.759 0.2 4 a 1.0

