data_00-066-0441
# Copyright 2025 International Centre for Diffraction Data. All rights reserved.

_audit_creation_date                  2025-07-06
_audit_creation_method                'Generated by PDF-5+ 2025 4.25.0.2'

_chemical_name_systematic             'Bismuth Neodymium Iron Oxide'
_chemical_formula_moiety              'Bi0.80 Nd0.20 ( Fe O3 )'
_chemical_formula_sum                 'Bi0.8 Fe Nd0.2 O3'
_chemical_formula_weight              299.87

# Atomic parameters are cross-referenced from PDF entry 04-022-3056

_cell_length_a                        3.9074(5)
_cell_length_b                        3.9112(6)
_cell_length_c                        3.9002(5)
_cell_angle_alpha                     90
_cell_angle_beta                      90
_cell_angle_gamma                     90
_cell_formula_units_Z                 1
_cell_volume                          59.61
_symmetry_cell_setting                triclinic
_symmetry_space_group_name_H-M        P1
_symmetry_Int_Tables_number           1

loop_
_symmetry_equiv_pos_site_id
_symmetry_equiv_pos_as_xyz
1 x,y,z

loop_
_atom_site_label
_atom_site_type_symbol
_atom_site_fract_x
_atom_site_fract_y
_atom_site_fract_z
_atom_site_U_iso_or_equiv
_atom_site_symmetry_multiplicity
_atom_site_Wyckoff_symbol
_atom_site_occupancy
Bi1 Bi 0.0 0.0 0.0 . 1 a 0.8
Nd2 Nd 0.0 0.0 0.0 . 1 a 0.2
Fe3 Fe 0.5689 0.4362 0.5467 . 1 a 1.0
O4 O -0.0815 0.4542 0.6774 . 1 a 1.0
O5 O 0.4538 -0.0722 0.6835 . 1 a 1.0
O6 O 0.4541 0.4756 0.0176 . 1 a 1.0

