data_00-049-0501
# Copyright 2025 International Centre for Diffraction Data. All rights reserved.

_audit_creation_date                  2025-07-04
_audit_creation_method                'Generated by PDF-5+ 2025 4.25.0.2'

_chemical_name_systematic             'Copper Chromium Phosphate'
_chemical_formula_moiety              'Cu3 Cr4 ( P O4 )6'
_chemical_formula_sum                 'Cr4 Cu3 O24 P6'
_chemical_formula_weight              968.44

# Atomic parameters are cross-referenced from PDF entry 04-009-2165

_cell_length_a                        9.2718(6)
_cell_length_b                        7.8360(5)
_cell_length_c                        6.2297(4)
_cell_angle_alpha                     101.950(6)
_cell_angle_beta                      107.238(6)
_cell_angle_gamma                     106.321(5)
_cell_formula_units_Z                 1
_cell_volume                          393.50
_symmetry_cell_setting                triclinic
_symmetry_space_group_name_H-M        P-1
_symmetry_Int_Tables_number           2

loop_
_symmetry_equiv_pos_site_id
_symmetry_equiv_pos_as_xyz
1 x,y,z
2 -x,-y,-z

loop_
_atom_site_label
_atom_site_type_symbol
_atom_site_fract_x
_atom_site_fract_y
_atom_site_fract_z
_atom_site_U_iso_or_equiv
_atom_site_symmetry_multiplicity
_atom_site_Wyckoff_symbol
_atom_site_occupancy
Cr1 Cr 0.0199 0.21043 0.04642 0.00458 2 i 1.0
Cu2 Cu 0.5 0.5 0.0 0.00994 1 e 0.892
Cr3 Cr 0.5 0.5 0.0 0.00994 1 e 0.108
Cr4 Cr 0.60986 0.95818 0.38151 0.00501 2 i 0.946
Cu5 Cu 0.60986 0.95818 0.38151 0.00501 2 i 0.054
Cu6 Cu 0.79292 0.31385 0.2818 0.01177 2 i 1.0
P7 P 0.87047 0.73831 0.40047 0.00504 2 i 1.0
P8 P 0.73593 0.35529 0.77565 0.0049 2 i 1.0
P9 P 0.33635 0.10288 0.0977 0.00454 2 i 1.0
O10 O 0.4215 0.04735 0.31707 0.00625 2 i 1.0
O11 O 0.26503 0.76221 0.45645 0.00737 2 i 1.0
O12 O 0.65723 0.02626 0.11751 0.00688 2 i 1.0
O13 O 0.99828 0.75825 0.64081 0.00825 2 i 1.0
O14 O 0.15817 0.68965 0.01095 0.0072 2 i 1.0
O15 O 0.19692 0.44244 0.20219 0.00936 2 i 1.0
O16 O 0.84325 0.947 0.92319 0.00627 2 i 1.0
O17 O 0.41944 0.30279 0.12344 0.00958 2 i 1.0
O18 O 0.43876 0.69932 0.22282 0.00766 2 i 1.0
O19 O 0.77749 0.86373 0.44311 0.01079 2 i 1.0
O20 O 0.96677 0.79234 0.25043 0.01067 2 i 1.0
O21 O 0.74633 0.53646 0.28612 0.01047 2 i 1.0

