data_00-066-0298
# Copyright 2025 International Centre for Diffraction Data. All rights reserved.

_audit_creation_date                  2025-07-06
_audit_creation_method                'Generated by PDF-5+ 2025 4.25.0.2'

_chemical_name_systematic             'Lead Scandium Niobium Oxide'
_chemical_formula_moiety              'Pb ( Sc0.5 Nb0.5 ) O3'
_chemical_formula_sum                 'Nb0.5 O3 Pb Sc0.5'
_chemical_formula_weight              324.12

_cell_length_a                        5.768
_cell_length_b                        5.768
_cell_length_c                        7.083
_cell_angle_alpha                     90.0
_cell_angle_beta                      90.0
_cell_angle_gamma                     120.0
_cell_formula_units_Z                 3
_cell_volume                          204.08
_symmetry_cell_setting                hexagonal
_symmetry_space_group_name_H-M        R3mH
_symmetry_Int_Tables_number           160

loop_
_symmetry_equiv_pos_site_id
_symmetry_equiv_pos_as_xyz
1 x,y,z
2 -y,x-y,z
3 -x+y,-x,z
4 -y,-x,z
5 x,x-y,z
6 -x+y,y,z
7 x+2/3,y+1/3,z+1/3
8 -y+2/3,x-y+1/3,z+1/3
9 -x+y+2/3,-x+1/3,z+1/3
10 -y+2/3,-x+1/3,z+1/3
11 x+2/3,x-y+1/3,z+1/3
12 -x+y+2/3,y+1/3,z+1/3
13 x+1/3,y+2/3,z+2/3
14 -y+1/3,x-y+2/3,z+2/3
15 -x+y+1/3,-x+2/3,z+2/3
16 -y+1/3,-x+2/3,z+2/3
17 x+1/3,x-y+2/3,z+2/3
18 -x+y+1/3,y+2/3,z+2/3

loop_
_atom_site_label
_atom_site_type_symbol
_atom_site_fract_x
_atom_site_fract_y
_atom_site_fract_z
_atom_site_U_iso_or_equiv
_atom_site_symmetry_multiplicity
_atom_site_Wyckoff_symbol
_atom_site_occupancy
Pb1 Pb 0.0 0.0 0.492 . . . 1.0
Sc2 Sc 0.0 0.0 0.019 . . . 0.5
Nb3 Nb 0.0 0.0 0.019 . . . 0.5
O4 O 0.384 0.176 0.13 . . . 1.0

