data_00-070-0190
# Copyright 2025 International Centre for Diffraction Data. All rights reserved.

_audit_creation_date                  2025-07-06
_audit_creation_method                'Generated by PDF-5+ 2025 4.25.0.2'

_chemical_name_systematic             'Barium Bismuth Lead Oxide'
_chemical_formula_moiety              'Ba Bi0.20 Pb0.80 O3'
_chemical_formula_sum                 'Ba Bi0.2 O3 Pb0.8'
_chemical_formula_weight              392.87

_cell_length_a                        6.06638(14)
_cell_length_b                        6.04935(9)
_cell_length_c                        6.06885(16)
_cell_angle_alpha                     60.0884(14)
_cell_angle_beta                      59.7570(11)
_cell_angle_gamma                     60.1314(11)
_cell_formula_units_Z                 2
_cell_volume                          157.45
_symmetry_cell_setting                triclinic
_symmetry_space_group_name_H-M        P1
_symmetry_Int_Tables_number           1

loop_
_symmetry_equiv_pos_site_id
_symmetry_equiv_pos_as_xyz
1 x,y,z

loop_
_atom_site_label
_atom_site_type_symbol
_atom_site_fract_x
_atom_site_fract_y
_atom_site_fract_z
_atom_site_U_iso_or_equiv
_atom_site_symmetry_multiplicity
_atom_site_Wyckoff_symbol
_atom_site_occupancy
Ba1 Ba 0.24514 0.24338 0.25821 0.01293 . . 1.0
Ba2 Ba 0.75278 0.7397 0.75379 0.00915 . . 1.0
Pb3 Pb 0.0 0.0 0.0 0.01001 . . 0.8
Pb4 Pb 0.49997 0.50201 0.49908 0.00901 . . 0.8
O5 O 0.34301 0.13225 0.74732 0.01 . . 1.0
O6 O 0.68668 0.8175 0.26712 0.01 . . 1.0
O7 O 0.80008 0.24878 0.20362 0.01 . . 1.0
O8 O 0.2758 0.85015 0.59967 0.01 . . 1.0
O9 O 0.25258 0.77851 0.22898 0.01 . . 1.0
O10 O 0.65166 0.26303 0.83099 0.01 . . 1.0
Bi11 Bi 0.0 0.0 0.0 0.01001 . . 0.2
Bi12 Bi 0.49997 0.50201 0.49908 0.00901 . . 0.2

