data_00-070-0103
# Copyright 2025 International Centre for Diffraction Data. All rights reserved.

_audit_creation_date                  2025-07-06
_audit_creation_method                'Generated by PDF-5+ 2025 4.25.0.2'

_chemical_name_systematic             'Gadolinium Cobalt Aluminum'
_chemical_formula_moiety              'Gd14 Co3.2 Al2.8'
_chemical_formula_sum                 'Al2.8 Co3.2 Gd14'
_chemical_formula_weight              2465.64

_cell_length_a                        9.5653(3)
_cell_length_b                        9.5653(3)
_cell_length_c                        22.9762(8)
_cell_angle_alpha                     90
_cell_angle_beta                      90
_cell_angle_gamma                     90
_cell_formula_units_Z                 4
_cell_volume                          2102.21
_symmetry_cell_setting                tetragonal
_symmetry_space_group_name_H-M        P42/nmc
_symmetry_Int_Tables_number           137

loop_
_symmetry_equiv_pos_site_id
_symmetry_equiv_pos_as_xyz
1 x,y,z
2 -x,-y,-z
3 -x+1/2,y,z
4 x+1/2,-y,-z
5 x,-y+1/2,z
6 -x,y+1/2,-z
7 -x+1/2,-y+1/2,z
8 x+1/2,y+1/2,-z
9 y,x,z+1/2
10 -y,-x,-z+1/2
11 -y+1/2,x,z+1/2
12 y+1/2,-x,-z+1/2
13 y,-x+1/2,z+1/2
14 -y,x+1/2,-z+1/2
15 -y+1/2,-x+1/2,z+1/2
16 y+1/2,x+1/2,-z+1/2

loop_
_atom_site_label
_atom_site_type_symbol
_atom_site_fract_x
_atom_site_fract_y
_atom_site_fract_z
_atom_site_B_iso_or_equiv
_atom_site_symmetry_multiplicity
_atom_site_Wyckoff_symbol
_atom_site_occupancy
Gd1 Gd 0.75 0.25 0.1439 . 4 c 1.0
Gd2 Gd 0.25 0.25 0.2165 . 4 d 1.0
Gd3 Gd 0.25 0.5423 0.3054 . 8 g 1.0
Gd4 Gd 0.25 0.5619 0.9868 . 8 g 1.0
Gd5 Gd 0.5649 -0.5649 0.25 . 8 f 1.0
Gd6 Gd 0.25 0.4422 0.4619 . 8 g 1.0
Gd7 Gd 0.4436 0.4355 0.1029 . 16 h 1.0
Co8 Co 0.25 0.5436 0.1833 . 8 g 1.0
Co9 Co 0.25 0.25 0.5538 . 4 d 1.0
Al10 Al 0.75 0.25 0.9033 . 4 c 1.0
Co11 Co 0.25 0.398 0.8495 . 8 g 0.1
Al12 Al 0.25 0.398 0.8495 . 8 g 0.9

