data_00-069-0652
# Copyright 2025 International Centre for Diffraction Data. All rights reserved.

_audit_creation_date                  2025-07-06
_audit_creation_method                'Generated by PDF-5+ 2025 4.25.0.2'

_chemical_name_systematic             'Bismuth Magnesium Strontium'
_chemical_formula_moiety              'Sr14 Mg Bi11'
_chemical_formula_sum                 'Bi11 Mg Sr14'
_chemical_formula_weight              3549.77

_cell_length_a                        17.854(2)
_cell_length_b                        17.854(2)
_cell_length_c                        23.580(6)
_cell_angle_alpha                     90.0
_cell_angle_beta                      90.0
_cell_angle_gamma                     90.0
_cell_formula_units_Z                 8
_cell_volume                          7516.49
_symmetry_cell_setting                tetragonal
_symmetry_space_group_name_H-M        I41/acd
_symmetry_Int_Tables_number           142

loop_
_symmetry_equiv_pos_site_id
_symmetry_equiv_pos_as_xyz
1 x,y,z
2 -x,-y,-z
3 -x,y,z+1/2
4 x,-y,-z+1/2
5 y+3/4,x+3/4,z+3/4
6 -y+1/4,-x+1/4,-z+1/4
7 -y+1/4,x+3/4,z+1/4
8 y+3/4,-x+1/4,-z+3/4
9 x+1/2,-y,z
10 -x+1/2,y,-z
11 -x+1/2,-y,z+1/2
12 x+1/2,y,-z+1/2
13 y+1/4,-x+1/4,z+3/4
14 -y+3/4,x+3/4,-z+1/4
15 -y+3/4,-x+1/4,z+1/4
16 y+1/4,x+3/4,-z+3/4
17 x+1/2,y+1/2,z+1/2
18 -x+1/2,-y+1/2,-z+1/2
19 -x+1/2,y+1/2,z
20 x+1/2,-y+1/2,-z
21 y+1/4,x+1/4,z+1/4
22 -y+3/4,-x+3/4,-z+3/4
23 -y+3/4,x+1/4,z+3/4
24 y+1/4,-x+3/4,-z+1/4
25 x,-y+1/2,z+1/2
26 -x,y+1/2,-z+1/2
27 -x,-y+1/2,z
28 x,y+1/2,-z
29 y+3/4,-x+3/4,z+1/4
30 -y+1/4,x+1/4,-z+3/4
31 -y+1/4,-x+3/4,z+3/4
32 y+3/4,x+1/4,-z+1/4

loop_
_atom_site_label
_atom_site_type_symbol
_atom_site_fract_x
_atom_site_fract_y
_atom_site_fract_z
_atom_site_U_iso_or_equiv
_atom_site_symmetry_multiplicity
_atom_site_Wyckoff_symbol
_atom_site_occupancy
Sr1 Sr 0.0417 0.07345 0.17205 0.029 . . 1.0
Sr2 Sr 0.02327 0.37628 0.00293 0.03423 . . 1.0
Sr3 Sr 0.35446 0.0 0.25 0.02827 . . 1.0
Sr4 Sr 0.34244 0.07179 0.09309 0.03377 . . 1.0
Mg5 Mg 0.0 0.25 0.375 0.03533 . . 1.0
Bi6 Bi 0.13644 0.38644 0.125 0.02777 . . 1.0
Bi7 Bi 0.36005 0.25509 0.06041 0.0288 . . 1.0
Bi8 Bi 0.13071 0.0268 0.04705 0.03033 . . 1.0
Bi9 Bi 0.0 0.25 0.125 0.031 . . 1.0

loop_
_atom_site_aniso_label
_atom_site_aniso_U_11
_atom_site_aniso_U_12
_atom_site_aniso_U_13
_atom_site_aniso_U_22
_atom_site_aniso_U_23
_atom_site_aniso_U_33
Sr1 0.0275 -8.0E-4 0.0031 0.0282 3.0E-4 0.0313
Sr2 0.03 0.0066 8.0E-4 0.0346 -0.0035 0.0381
Sr3 0.0288 0.0 0.0 0.0288 0.0027 0.0272
Sr4 0.0428 0.0019 0.0061 0.0283 0.0016 0.0302
Mg5 0.035 0.0 0.0 0.035 0.0 0.036
Bi6 0.0268 -6.0E-4 6.0E-4 0.0268 -6.0E-4 0.0297
Bi7 0.0266 -0.0024 -0.0031 0.0267 0.003 0.0331
Bi8 0.036 0.0043 0.0019 0.0269 -3.0E-4 0.0281
Bi9 0.0306 0.005 0.0 0.0306 0.0 0.0318

