data_00-061-0728
# Copyright 2025 International Centre for Diffraction Data. All rights reserved.

_audit_creation_date                  2025-07-04
_audit_creation_method                'Generated by PDF-5+ 2025 4.25.0.2'

_chemical_name_systematic             'Bismuth Manganese Gallium Oxide'
_chemical_formula_moiety              'Bi Mn0.3 Ga0.7 O3'
_chemical_formula_sum                 'Bi Ga0.7 Mn0.3 O3'
_chemical_formula_weight              322.26

# Atomic parameters are cross-referenced from PDF entry 04-019-2796

_cell_length_a                        5.2798(1)
_cell_length_b                        5.2577(1)
_cell_length_c                        4.6465(1)
_cell_angle_alpha                     90
_cell_angle_beta                      91.974(2)
_cell_angle_gamma                     90
_cell_formula_units_Z                 2
_cell_volume                          128.91
_symmetry_cell_setting                monoclinic
_symmetry_space_group_name_H-M        Cm
_symmetry_Int_Tables_number           8

loop_
_symmetry_equiv_pos_site_id
_symmetry_equiv_pos_as_xyz
1 x,y,z
2 x,-y,z
3 x+1/2,y+1/2,z
4 x+1/2,-y+1/2,z

loop_
_atom_site_label
_atom_site_type_symbol
_atom_site_fract_x
_atom_site_fract_y
_atom_site_fract_z
_atom_site_B_iso_or_equiv
_atom_site_symmetry_multiplicity
_atom_site_Wyckoff_symbol
_atom_site_occupancy
Bi1 Bi 0.0 0.0 0.0 0.38 2 a 1.0
Ga2 Ga 0.4526 0.0 0.5594 0.2 2 a 0.7
Mn3 Mn 0.4526 0.0 0.5594 0.2 2 a 0.3
O4 O 0.4072 0.0 0.1621 0.6 2 a 1.0
O5 O 0.1744 0.2592 0.6567 0.2 4 b 1.0

