data_00-064-0533
# Copyright 2025 International Centre for Diffraction Data. All rights reserved.

_audit_creation_date                  2025-07-06
_audit_creation_method                'Generated by PDF-5+ 2025 4.25.0.2'

_chemical_name_systematic             'Calcium Gadolinium Silicate'
_chemical_formula_moiety              'Ca3 Gd2 Si3 O12'
_chemical_formula_sum                 'Ca3 Gd2 O12 Si3'
_chemical_formula_weight              710.98

_cell_length_a                        6.57911(4)
_cell_length_b                        15.7205(1)
_cell_length_c                        10.0799(1)
_cell_angle_alpha                     90.0
_cell_angle_beta                      90.0
_cell_angle_gamma                     90.0
_cell_formula_units_Z                 4
_cell_volume                          1042.53
_symmetry_cell_setting                orthorhombic
_symmetry_space_group_name_H-M        Pnma
_symmetry_Int_Tables_number           62

loop_
_symmetry_equiv_pos_site_id
_symmetry_equiv_pos_as_xyz
1 x,y,z
2 -x,-y,-z
3 x+1/2,-y+1/2,-z+1/2
4 -x+1/2,y+1/2,z+1/2
5 -x,y+1/2,-z
6 x,-y+1/2,z
7 -x+1/2,-y,z+1/2
8 x+1/2,y,-z+1/2

loop_
_atom_site_label
_atom_site_type_symbol
_atom_site_fract_x
_atom_site_fract_y
_atom_site_fract_z
_atom_site_U_iso_or_equiv
_atom_site_symmetry_multiplicity
_atom_site_Wyckoff_symbol
_atom_site_occupancy
Gd1 Gd 0.3776 0.09408 0.07175 0.0138 . . 0.435
Ca2 Ca 0.3776 0.09408 0.07175 0.0138 . . 0.565
Gd3 Gd 0.17443 0.61104 0.16715 0.0144 . . 0.375
Ca4 Ca 0.17443 0.61104 0.16715 0.0144 . . 0.625
Gd5 Gd 0.0254 0.25 0.1632 0.0203 . . 0.38
Ca6 Ca 0.0254 0.25 0.1632 0.0203 . . 0.62
Si7 Si 0.3524 0.06652 0.3718 0.0089 . . 1.0
Si8 Si 0.032 0.25 0.5797 0.0067 . . 1.0
O9 O 0.0261 0.1134 0.0363 0.021 . . 1.0
O10 O 0.0468 0.6645 0.3477 0.0232 . . 1.0
O11 O 0.1982 0.0308 0.4862 0.0169 . . 1.0
O12 O 0.2606 0.1421 0.282 0.0182 . . 1.0
O13 O 0.4128 0.5117 0.2733 0.0168 . . 1.0
O14 O 0.2769 0.25 0.5854 0.0193 . . 1.0
O15 O 0.4145 0.25 0.0602 0.021 . . 1.0

