data_00-057-0164
# Copyright 2025 International Centre for Diffraction Data. All rights reserved.

_audit_creation_date                  2025-07-04
_audit_creation_method                'Generated by PDF-5+ 2025 4.25.0.2'

_chemical_name_systematic             'Lithium Scandium Arsenate'
_chemical_formula_moiety              'Li Sc As2 O7'
_chemical_formula_sum                 'As2 Li O7 Sc'
_chemical_formula_weight              313.73

# Atomic parameters are cross-referenced from PDF entry 04-015-2844

_cell_length_a                        6.790(1)
_cell_length_b                        8.532(2)
_cell_length_c                        4.845(1)
_cell_angle_alpha                     90
_cell_angle_beta                      103.75(3)
_cell_angle_gamma                     90
_cell_formula_units_Z                 2
_cell_volume                          272.64
_symmetry_cell_setting                monoclinic
_symmetry_space_group_name_H-M        C2
_symmetry_Int_Tables_number           5

loop_
_symmetry_equiv_pos_site_id
_symmetry_equiv_pos_as_xyz
1 x,y,z
2 -x,y,-z
3 x+1/2,y+1/2,z
4 -x+1/2,y+1/2,-z

loop_
_atom_site_label
_atom_site_type_symbol
_atom_site_fract_x
_atom_site_fract_y
_atom_site_fract_z
_atom_site_U_iso_or_equiv
_atom_site_symmetry_multiplicity
_atom_site_Wyckoff_symbol
_atom_site_occupancy
Li1 Li 0.0 0.7515 0.5 0.0471 2 b 1.0
Sc2 Sc 0.0 0.37091 0.5 0.00565 2 b 1.0
As3 As 0.21561 1.03687 0.90935 0.00642 4 c 1.0
O4 O 0.0 0.9671 0.0 0.01889 2 a 1.0
O5 O 0.3865 0.0532 0.2191 0.00904 4 c 1.0
O6 O 0.175 0.2089 0.7499 0.01777 4 c 1.0
O7 O 0.2479 0.8941 0.6887 0.01011 4 c 1.0

loop_
_atom_site_aniso_label
_atom_site_aniso_U_11
_atom_site_aniso_U_12
_atom_site_aniso_U_13
_atom_site_aniso_U_22
_atom_site_aniso_U_23
_atom_site_aniso_U_33
Li1 0.033 0.0 -0.019 0.048 0.0 0.046
Sc2 0.0064 0.0 8.0E-4 0.006 0.0 0.0043
As3 0.00633 8.3E-4 7.0E-4 0.00682 6.8E-4 0.00574
O4 0.0112 0.0 0.0112 0.0176 0.0 0.031
O5 0.0098 0.0026 -0.0036 0.0075 4.0E-4 0.007
O6 0.0266 0.0051 -0.0047 0.0077 0.0037 0.0142
O7 0.0127 -0.0019 0.0054 0.0092 -0.003 0.0098

