data_00-062-0897
# Copyright 2025 International Centre for Diffraction Data. All rights reserved.

_audit_creation_date                  2025-07-06
_audit_creation_method                'Generated by PDF-5+ 2025 4.25.0.2'

_chemical_name_systematic             'Copper Molybdenum Selenium Oxide'
_chemical_formula_moiety              'Cu2 ( Se O3 ) ( Mo O4 )'
_chemical_formula_sum                 'Cu2 Mo O7 Se'
_chemical_formula_weight              414.00

_cell_length_a                        8.148(5)
_cell_length_b                        9.023(5)
_cell_length_c                        8.392(5)
_cell_angle_alpha                     90.0
_cell_angle_beta                      104.675(12)
_cell_angle_gamma                     90.0
_cell_formula_units_Z                 4
_cell_volume                          596.85
_symmetry_cell_setting                monoclinic
_symmetry_space_group_name_H-M        P121/c1
_symmetry_Int_Tables_number           14

loop_
_symmetry_equiv_pos_site_id
_symmetry_equiv_pos_as_xyz
1 x,y,z
2 -x,-y,-z
3 -x,y+1/2,-z+1/2
4 x,-y+1/2,z+1/2

loop_
_atom_site_label
_atom_site_type_symbol
_atom_site_fract_x
_atom_site_fract_y
_atom_site_fract_z
_atom_site_U_iso_or_equiv
_atom_site_symmetry_multiplicity
_atom_site_Wyckoff_symbol
_atom_site_occupancy
Cu1 Cu 0.31351 -0.00693 0.3813 0.00999 . . 1.0
Cu2 Cu 0.31612 -0.00682 0.02771 0.01051 . . 1.0
Mo3 Mo 0.12193 0.29123 0.15752 0.00742 . . 1.0
Se4 Se 0.31824 -0.32792 0.20537 0.00728 . . 1.0
O5 O 0.3807 -0.1445 0.2197 0.0105 . . 1.0
O6 O 0.4346 -0.3865 0.392 0.0109 . . 1.0
O7 O 0.4339 -0.3919 0.0789 0.0106 . . 1.0
O8 O 0.2189 0.1061 0.1805 0.0115 . . 1.0
O9 O 0.1753 0.3902 -0.001 0.0162 . . 1.0
O10 O -0.0963 0.2712 0.1073 0.0188 . . 1.0
O11 O 0.183 0.3949 0.3387 0.0188 . . 1.0

