data_00-060-0760
# Copyright 2025 International Centre for Diffraction Data. All rights reserved.

_audit_creation_date                  2025-07-04
_audit_creation_method                'Generated by PDF-5+ 2025 4.25.0.2'

_chemical_name_systematic             'Barium Dysprosium Cobalt Oxide'
_chemical_formula_moiety              'Ba Dy Co4 O7'
_chemical_formula_sum                 'Ba Co4 Dy O7'
_chemical_formula_weight              647.55

_cell_length_a                        6.31181(6)
_cell_length_b                        6.31181(6)
_cell_length_c                        10.24440(15)
_cell_angle_alpha                     90.0
_cell_angle_beta                      90.0
_cell_angle_gamma                     120.0
_cell_formula_units_Z                 2
_cell_volume                          353.45
_symmetry_cell_setting                hexagonal
_symmetry_space_group_name_H-M        P31c
_symmetry_Int_Tables_number           159

loop_
_symmetry_equiv_pos_site_id
_symmetry_equiv_pos_as_xyz
1 x,y,z
2 -y,x-y,z
3 -x+y,-x,z
4 y,x,z+1/2
5 -x,-x+y,z+1/2
6 x-y,-y,z+1/2

loop_
_atom_site_label
_atom_site_type_symbol
_atom_site_fract_x
_atom_site_fract_y
_atom_site_fract_z
_atom_site_U_iso_or_equiv
_atom_site_symmetry_multiplicity
_atom_site_Wyckoff_symbol
_atom_site_occupancy
Dy1 Dy 0.66667 0.33333 0.86893 0.0236 . . 1.0
Ba2 Ba 0.66667 0.33333 0.5 0.0125 . . 1.0
Co3 Co 0.0 0.0 0.4424 0.0037 . . 1.0
Co4 Co 0.1843 0.8476 0.6829 0.0037 . . 1.0
O5 O 0.44819 0.50658 0.76253 0.026 . . 1.0
O6 O 0.0 0.0 0.25528 0.026 . . 1.0
O7 O 0.13851 0.80298 0.49584 0.026 . . 1.0

