data_00-070-0173
# Copyright 2025 International Centre for Diffraction Data. All rights reserved.

_audit_creation_date                  2025-07-06
_audit_creation_method                'Generated by PDF-5+ 2025 4.25.0.2'

_chemical_name_systematic             'Aluminum Rhodium Ytterbium'
_chemical_formula_moiety              'Al10 Rh2 Yb'
_chemical_formula_sum                 'Al10 Rh2 Yb'
_chemical_formula_weight              648.69
_chemical_melting_point               1162.0

_cell_length_a                        9.049(4)
_cell_length_b                        10.233(3)
_cell_length_c                        9.088(2)
_cell_angle_alpha                     90
_cell_angle_beta                      90
_cell_angle_gamma                     90
_cell_formula_units_Z                 4
_cell_volume                          845.92
_symmetry_cell_setting                orthorhombic
_symmetry_space_group_name_H-M        Cmcm
_symmetry_Int_Tables_number           63

loop_
_symmetry_equiv_pos_site_id
_symmetry_equiv_pos_as_xyz
1 x,y,z
2 -x,-y,-z
3 x,-y,-z
4 -x,y,z
5 x,y,-z+1/2
6 -x,-y,z+1/2
7 x,-y,z+1/2
8 -x,y,-z+1/2
9 x+1/2,y+1/2,z
10 -x+1/2,-y+1/2,-z
11 x+1/2,-y+1/2,-z
12 -x+1/2,y+1/2,z
13 x+1/2,y+1/2,-z+1/2
14 -x+1/2,-y+1/2,z+1/2
15 x+1/2,-y+1/2,z+1/2
16 -x+1/2,y+1/2,-z+1/2

loop_
_atom_site_label
_atom_site_type_symbol
_atom_site_fract_x
_atom_site_fract_y
_atom_site_fract_z
_atom_site_U_iso_or_equiv
_atom_site_symmetry_multiplicity
_atom_site_Wyckoff_symbol
_atom_site_occupancy
Al1 Al 0.2246 0.3648 0.25 0.00769 . . 1.0
Al2 Al 0.3515 0.1262 0.25 0.00703 . . 1.0
Al3 Al 0.0 0.1561 0.6006 0.00755 . . 1.0
Al4 Al 0.0 0.3776 0.053 0.01016 . . 1.0
Al5 Al 0.2229 0.0 0.0 0.00901 . . 1.0
Rh6 Rh 0.25 0.25 0.0 0.00475 . . 1.0
Yb7 Yb 0.0 0.12453 0.25 0.00656 . . 1.0

loop_
_atom_site_aniso_label
_atom_site_aniso_U_11
_atom_site_aniso_U_12
_atom_site_aniso_U_13
_atom_site_aniso_U_22
_atom_site_aniso_U_23
_atom_site_aniso_U_33
Al1 0.0157 0.0036 0.0 0.0047 0.0 0.0029
Al2 0.0073 -5.0E-4 0.0 0.0072 0.0 0.0068
Al3 0.0069 0.0 0.0 0.0091 -2.0E-4 0.0069
Al4 0.0082 0.0 0.0 0.0083 0.0033 0.0143
Al5 0.0109 0.0 0.0 0.0073 0.0012 0.0091
Rh6 0.0052 0.0 1.0E-4 0.0048 -0.0012 0.0044
Yb7 0.0076 0.0 0.0 0.0056 0.0 0.0067

