data_00-058-0681
# Copyright 2025 International Centre for Diffraction Data. All rights reserved.

_audit_creation_date                  2025-07-04
_audit_creation_method                'Generated by PDF-5+ 2025 4.25.0.2'

_chemical_name_systematic             'Potassium Lutetium Zirconium Phosphate'
_chemical_formula_moiety              'K2 Lu Zr ( P O4 )3'
_chemical_formula_sum                 'K2 Lu O12 P3 Zr'
_chemical_formula_weight              629.30

_cell_length_a                        10.29727(5)
_cell_length_b                        10.29727(5)
_cell_length_c                        10.29727(5)
_cell_angle_alpha                     90.0
_cell_angle_beta                      90.0
_cell_angle_gamma                     90.0
_cell_formula_units_Z                 4
_cell_volume                          1091.86
_symmetry_cell_setting                cubic
_symmetry_space_group_name_H-M        P213
_symmetry_Int_Tables_number           198

loop_
_symmetry_equiv_pos_site_id
_symmetry_equiv_pos_as_xyz
1 x,y,z
2 z,x,y
3 y,z,x
4 x+1/2,-y+1/2,-z
5 z+1/2,-x+1/2,-y
6 y+1/2,-z+1/2,-x
7 -x,y+1/2,-z+1/2
8 -z,x+1/2,-y+1/2
9 -y,z+1/2,-x+1/2
10 -x+1/2,-y,z+1/2
11 -z+1/2,-x,y+1/2
12 -y+1/2,-z,x+1/2

loop_
_atom_site_label
_atom_site_type_symbol
_atom_site_fract_x
_atom_site_fract_y
_atom_site_fract_z
_atom_site_U_iso_or_equiv
_atom_site_symmetry_multiplicity
_atom_site_Wyckoff_symbol
_atom_site_occupancy
Lu1 Lu 0.3342 0.6658 0.1658 . . . 0.5819
Zr2 Zr 0.3342 0.6658 0.1658 . . . 0.4181
Lu3 Lu 0.1026 0.1026 0.1026 . . . 0.4181
Zr4 Zr 0.1026 0.1026 0.1026 . . . 0.5819
K5 K 0.3197 0.3197 0.3197 . . . 1.0
K6 K -0.0464 0.4536 0.0464 . . . 1.0
P7 P 0.6246 0.4833 0.2129 . . . 1.0
O8 O 0.669 0.4848 0.072 . . . 1.0
O9 O 0.729 0.5465 0.2978 . . . 1.0
O10 O 0.5017 0.5615 0.2308 . . . 1.0
O11 O 0.5996 0.3452 0.2581 . . . 1.0

