data_00-071-0062
# Copyright 2025 International Centre for Diffraction Data. All rights reserved.

_audit_creation_date                  2025-07-06
_audit_creation_method                'Generated by PDF-5+ 2025 4.25.0.2'

_chemical_name_systematic             'Calcium Bismuth Iron Oxide'
_chemical_name_common                 BCF10
_chemical_formula_moiety              'Bi0.9 Ca0.1 Fe O3'
_chemical_formula_sum                 'Bi0.9 Ca0.1 Fe O3'
_chemical_formula_weight              295.93

_cell_length_a                        5.570
_cell_length_b                        5.570
_cell_length_c                        13.673
_cell_angle_alpha                     90
_cell_angle_beta                      90
_cell_angle_gamma                     120
_cell_formula_units_Z                 6
_cell_volume                          367.37
_symmetry_cell_setting                hexagonal
_symmetry_space_group_name_H-M        R3cH
_symmetry_Int_Tables_number           161

loop_
_symmetry_equiv_pos_site_id
_symmetry_equiv_pos_as_xyz
1 x,y,z
2 -y,x-y,z
3 -x+y,-x,z
4 -y,-x,z+1/2
5 x,x-y,z+1/2
6 -x+y,y,z+1/2
7 x+2/3,y+1/3,z+1/3
8 -y+2/3,x-y+1/3,z+1/3
9 -x+y+2/3,-x+1/3,z+1/3
10 -y+2/3,-x+1/3,z+5/6
11 x+2/3,x-y+1/3,z+5/6
12 -x+y+2/3,y+1/3,z+5/6
13 x+1/3,y+2/3,z+2/3
14 -y+1/3,x-y+2/3,z+2/3
15 -x+y+1/3,-x+2/3,z+2/3
16 -y+1/3,-x+2/3,z+1/6
17 x+1/3,x-y+2/3,z+1/6
18 -x+y+1/3,y+2/3,z+1/6

loop_
_atom_site_label
_atom_site_type_symbol
_atom_site_fract_x
_atom_site_fract_y
_atom_site_fract_z
_atom_site_U_iso_or_equiv
_atom_site_symmetry_multiplicity
_atom_site_Wyckoff_symbol
_atom_site_occupancy
Ca1 Ca 0.0 0.0 0.497 . . . 0.1
Bi2 Bi 0.0 0.0 0.497 . . . 0.9
Fe3 Fe 0.0 0.0 0.221 . . . 1.0
O4 O 1.097 0.745 0.304 . . . 1.0

