data_00-057-1081
# Copyright 2025 International Centre for Diffraction Data. All rights reserved.

_audit_creation_date                  2025-07-04
_audit_creation_method                'Generated by PDF-5+ 2025 4.25.0.2'

_chemical_name_systematic             'Potassium Bismuth Phosphate Tungstate'
_chemical_formula_moiety              'K2 Bi ( W O4 ) ( P O4 )'
_chemical_formula_sum                 'Bi K2 O8 P W'
_chemical_formula_weight              629.98

_cell_length_a                        19.7253(12)
_cell_length_b                        12.4764(8)
_cell_length_c                        7.0284(2)
_cell_angle_alpha                     90.0
_cell_angle_beta                      90.0
_cell_angle_gamma                     90.0
_cell_formula_units_Z                 8
_cell_volume                          1732.13
_symmetry_cell_setting                orthorhombic
_symmetry_space_group_name_H-M        Ibca
_symmetry_Int_Tables_number           73

loop_
_symmetry_equiv_pos_site_id
_symmetry_equiv_pos_as_xyz
1 x,y,z
2 -x,-y,-z
3 -x+1/2,-y,z+1/2
4 x+1/2,y,-z+1/2
5 -x,y+1/2,-z+1/2
6 x,-y+1/2,z+1/2
7 x+1/2,-y+1/2,-z
8 -x+1/2,y+1/2,z
9 x+1/2,y+1/2,z+1/2
10 -x+1/2,-y+1/2,-z+1/2
11 -x,-y+1/2,z
12 x,y+1/2,-z
13 -x+1/2,y,-z
14 x+1/2,-y,z
15 x,-y,-z+1/2
16 -x,y,z+1/2

loop_
_atom_site_label
_atom_site_type_symbol
_atom_site_fract_x
_atom_site_fract_y
_atom_site_fract_z
_atom_site_U_iso_or_equiv
_atom_site_symmetry_multiplicity
_atom_site_Wyckoff_symbol
_atom_site_occupancy
K1 K 0.594 0.1706 -0.2831 0.035 . . 1.0
Bi2 Bi 0.75 0.0813 0.0 0.017 . . 1.0
W3 W 0.4187 0.0 0.75 0.023 . . 1.0
P4 P 0.25 0.1766 0.0 0.017 . . 1.0
O5 O 0.3685 0.0331 -0.4525 0.03 . . 1.0
O6 O 0.4693 0.1111 -0.1849 0.043 . . 1.0
O7 O 0.1884 0.2503 0.0268 0.023 . . 1.0
O8 O 0.2384 0.0999 -0.1684 0.025 . . 1.0

