data_00-060-0448
# Copyright 2025 International Centre for Diffraction Data. All rights reserved.

_audit_creation_date                  2025-07-04
_audit_creation_method                'Generated by PDF-5+ 2025 4.25.0.2'

_chemical_name_systematic             'Barium Copper Neodymium Yttrium Oxide'
_chemical_formula_moiety              'Ba Cu ( Nd0.4 Y1.6 ) O5'
_chemical_formula_sum                 'Ba Cu Nd0.4 O5 Y1.6'
_chemical_formula_weight              480.81

_cell_length_a                        12.26614(8)
_cell_length_b                        5.68855(3)
_cell_length_c                        7.17207(5)
_cell_angle_alpha                     90.0
_cell_angle_beta                      90.0
_cell_angle_gamma                     90.0
_cell_formula_units_Z                 4
_cell_volume                          500.44
_symmetry_cell_setting                orthorhombic
_symmetry_space_group_name_H-M        Pnma
_symmetry_Int_Tables_number           62

loop_
_symmetry_equiv_pos_site_id
_symmetry_equiv_pos_as_xyz
1 x,y,z
2 -x,-y,-z
3 x+1/2,-y+1/2,-z+1/2
4 -x+1/2,y+1/2,z+1/2
5 -x,y+1/2,-z
6 x,-y+1/2,z
7 -x+1/2,-y,z+1/2
8 x+1/2,y,-z+1/2

loop_
_atom_site_label
_atom_site_type_symbol
_atom_site_fract_x
_atom_site_fract_y
_atom_site_fract_z
_atom_site_U_iso_or_equiv
_atom_site_symmetry_multiplicity
_atom_site_Wyckoff_symbol
_atom_site_occupancy
Ba1 Ba 0.9047 0.25 0.9322 0.0176 . . 1.0
Nd2 Nd 0.2876 0.25 0.1154 0.0135 . . 0.087
Y3 Y 0.2886 0.25 0.115 0.0135 . . 0.913
Nd4 Nd 0.076 0.25 0.3992 0.0135 . . 0.313
Y5 Y 0.0721 0.25 0.3936 0.0135 . . 0.687
Cu6 Cu 0.6594 0.25 0.7119 0.0174 . . 1.0
O7 O 0.4305 -0.003 0.17 0.0209 . . 1.0
O8 O 0.2269 0.5093 0.35 0.0209 . . 1.0
O9 O 0.1039 0.25 0.0773 0.0209 . . 1.0

