data_00-068-0077
# Copyright 2025 International Centre for Diffraction Data. All rights reserved.

_audit_creation_date                  2025-07-06
_audit_creation_method                'Generated by PDF-5+ 2025 4.25.0.2'

_chemical_name_systematic             'Barium Iron Oxide'
_chemical_formula_moiety              'Ba Fe12 O19'
_chemical_formula_sum                 'Ba Fe12 O19'
_chemical_formula_weight              1111.45

# Atomic parameters are cross-referenced from PDF entry 04-006-4166

_cell_length_a                        5.895
_cell_length_b                        5.895
_cell_length_c                        23.199
_cell_angle_alpha                     90
_cell_angle_beta                      90
_cell_angle_gamma                     120
_cell_formula_units_Z                 2
_cell_volume                          698.18
_symmetry_cell_setting                hexagonal
_symmetry_space_group_name_H-M        P63/mmc
_symmetry_Int_Tables_number           194

loop_
_symmetry_equiv_pos_site_id
_symmetry_equiv_pos_as_xyz
1 x,y,z
2 -x,-y,-z
3 -y,x-y,z
4 y,-x+y,-z
5 -x+y,-x,z
6 x-y,x,-z
7 -y,-x,z
8 y,x,-z
9 x,x-y,z
10 -x,-x+y,-z
11 -x+y,y,z
12 x-y,-y,-z
13 -x,-y,z+1/2
14 x,y,-z+1/2
15 y,-x+y,z+1/2
16 -y,x-y,-z+1/2
17 x-y,x,z+1/2
18 -x+y,-x,-z+1/2
19 y,x,z+1/2
20 -y,-x,-z+1/2
21 -x,-x+y,z+1/2
22 x,x-y,-z+1/2
23 x-y,-y,z+1/2
24 -x+y,y,-z+1/2

loop_
_atom_site_label
_atom_site_type_symbol
_atom_site_fract_x
_atom_site_fract_y
_atom_site_fract_z
_atom_site_U_iso_or_equiv
_atom_site_symmetry_multiplicity
_atom_site_Wyckoff_symbol
_atom_site_occupancy
O1 O 0.15647 0.31294 0.05192 . 12 k 1.0
Fe2 Fe 0.16867 0.33735 0.60825 . 12 k 1.0
O3 O 0.5026 0.0052 0.14957 . 12 k 1.0
O4 O 0.18213 0.36426 0.25 . 6 h 1.0
Fe5 Fe 0.33333 0.66666 0.02713 . 4 f 1.0
Fe6 Fe 0.33333 0.66666 0.1903 . 4 f 1.0
O7 O 0.33333 0.66666 0.55454 . 4 f 1.0
O8 O 0.0 0.0 0.15094 . 4 e 1.0
Fe9 Fe 0.0 0.0 0.24267 . 4 e 0.5
Ba10 Ba 0.33333 0.66666 0.75 . 2 d 1.0
Fe11 Fe 0.0 0.0 0.0 . 2 a 1.0

