data_00-067-0152
# Copyright 2025 International Centre for Diffraction Data. All rights reserved.

_audit_creation_date                  2025-07-06
_audit_creation_method                'Generated by PDF-5+ 2025 4.25.0.2'

_chemical_name_systematic             'Gadolinium Molybdenum Oxide'
_chemical_formula_moiety              'Gd2 ( Mo O4 )3'
_chemical_formula_sum                 'Gd2 Mo3 O12'
_chemical_formula_weight              794.37

_cell_length_a                        7.5489
_cell_length_b                        11.4393
_cell_length_c                        11.4683
_cell_angle_alpha                     90.0
_cell_angle_beta                      109.318
_cell_angle_gamma                     90.0
_cell_formula_units_Z                 4
_cell_volume                          934.58
_symmetry_cell_setting                monoclinic
_symmetry_space_group_name_H-M        C12/c1
_symmetry_Int_Tables_number           15

loop_
_symmetry_equiv_pos_site_id
_symmetry_equiv_pos_as_xyz
1 x,y,z
2 -x,-y,-z
3 -x,y,-z+1/2
4 x,-y,z+1/2
5 x+1/2,y+1/2,z
6 -x+1/2,-y+1/2,-z
7 -x+1/2,y+1/2,-z+1/2
8 x+1/2,-y+1/2,z+1/2

loop_
_atom_site_label
_atom_site_type_symbol
_atom_site_fract_x
_atom_site_fract_y
_atom_site_fract_z
_atom_site_U_iso_or_equiv
_atom_site_symmetry_multiplicity
_atom_site_Wyckoff_symbol
_atom_site_occupancy
Gd1 Gd 0.33202 0.37668 0.40924 0.005 . . 1.0
Mo2 Mo 0.0 0.1276 0.25 0.0047 . . 1.0
Mo3 Mo 0.1494 0.38842 0.05994 0.0054 . . 1.0
O4 O 0.1675 0.0413 0.2187 0.008 . . 1.0
O5 O 0.1367 0.2072 0.3918 0.013 . . 1.0
O6 O 0.2448 0.314 0.2017 0.0012 . . 1.0
O7 O 0.3607 0.4563 0.0396 0.0012 . . 1.0
O8 O 0.0454 0.4605 0.4043 0.0012 . . 1.0
O9 O 0.4555 0.2157 0.0586 0.0012 . . 1.0

