data_00-061-0615
# Copyright 2025 International Centre for Diffraction Data. All rights reserved.

_audit_creation_date                  2025-07-04
_audit_creation_method                'Generated by PDF-5+ 2025 4.25.0.2'

_chemical_name_systematic             'Gadolinium Yttrium Niobium Oxide'
_chemical_formula_moiety              'Gd2.4 Y0.6 Nb O7'
_chemical_formula_sum                 'Gd2.4 Nb O7 Y0.6'
_chemical_formula_weight              635.64

_cell_length_a                        10.58040(16)
_cell_length_b                        7.50007(11)
_cell_length_c                        7.53437(9)
_cell_angle_alpha                     90.0
_cell_angle_beta                      90.0
_cell_angle_gamma                     90.0
_cell_formula_units_Z                 4
_cell_volume                          597.88
_symmetry_cell_setting                orthorhombic
_symmetry_space_group_name_H-M        C2221
_symmetry_Int_Tables_number           20

loop_
_symmetry_equiv_pos_site_id
_symmetry_equiv_pos_as_xyz
1 x,y,z
2 x,-y,-z
3 -x,-y,z+1/2
4 -x,y,-z+1/2
5 x+1/2,y+1/2,z
6 x+1/2,-y+1/2,-z
7 -x+1/2,-y+1/2,z+1/2
8 -x+1/2,y+1/2,-z+1/2

loop_
_atom_site_label
_atom_site_type_symbol
_atom_site_fract_x
_atom_site_fract_y
_atom_site_fract_z
_atom_site_U_iso_or_equiv
_atom_site_symmetry_multiplicity
_atom_site_Wyckoff_symbol
_atom_site_occupancy
Gd1 Gd 0.0 0.5111 0.25 0.0225 . . 1.0
Gd2 Gd 0.23241 0.23477 0.00686 0.0225 . . 0.7
Y3 Y 0.23241 0.23477 0.00686 0.0225 . . 0.3
Nb4 Nb 0.0 -0.0028 0.25 0.0103 . . 1.0
O5 O 0.1274 0.184 0.2897 0.0278 . . 1.0
O6 O 0.1133 -0.2107 0.2821 0.0278 . . 1.0
O7 O 0.1196 0.5 0.0 0.0278 . . 1.0
O8 O 0.1281 0.5 0.5 0.0278 . . 1.0
O9 O 0.0667 0.0 0.0 0.0278 . . 1.0

