data_00-050-0395
# Copyright 2025 International Centre for Diffraction Data. All rights reserved.

_audit_creation_date                  2025-07-04
_audit_creation_method                'Generated by PDF-5+ 2025 4.25.0.2'

_chemical_name_systematic             'Silver Calcium Cobalt Vanadium Oxide'
_chemical_formula_moiety              'Ag Ca2 Co2 V3 O12'
_chemical_formula_sum                 'Ag Ca2 Co2 O12 V3'
_chemical_formula_weight              650.70

# Atomic parameters are cross-referenced from PDF entry 04-012-5499

_cell_length_a                        12.470(2)
_cell_length_b                        12.470(2)
_cell_length_c                        12.470(2)
_cell_angle_alpha                     90
_cell_angle_beta                      90
_cell_angle_gamma                     90
_cell_formula_units_Z                 8
_cell_volume                          1939.10
_symmetry_cell_setting                cubic
_symmetry_space_group_name_H-M        Ia-3d
_symmetry_Int_Tables_number           230

loop_
_symmetry_equiv_pos_site_id
_symmetry_equiv_pos_as_xyz
1 x,y,z
2 -x,-y,-z
3 x+1/2,-y+1/2,-z
4 -x+1/2,y+1/2,z
5 -x,y+1/2,-z+1/2
6 x,-y+1/2,z+1/2
7 -x+1/2,-y,z+1/2
8 x+1/2,y,-z+1/2
9 z,x,y
10 -z,-x,-y
11 z+1/2,-x+1/2,-y
12 -z+1/2,x+1/2,y
13 -z,x+1/2,-y+1/2
14 z,-x+1/2,y+1/2
15 -z+1/2,-x,y+1/2
16 z+1/2,x,-y+1/2
17 y,z,x
18 -y,-z,-x
19 y+1/2,-z+1/2,-x
20 -y+1/2,z+1/2,x
21 -y,z+1/2,-x+1/2
22 y,-z+1/2,x+1/2
23 -y+1/2,-z,x+1/2
24 y+1/2,z,-x+1/2
25 x+1/4,z+1/4,y+1/4
26 -x+3/4,-z+3/4,-y+3/4
27 y+1/4,x+1/4,z+1/4
28 -y+3/4,-x+3/4,-z+3/4
29 z+1/4,y+1/4,x+1/4
30 -z+3/4,-y+3/4,-x+3/4
31 x+3/4,-z+1/4,-y+3/4
32 -x+1/4,z+3/4,y+1/4
33 y+3/4,-x+1/4,-z+3/4
34 -y+1/4,x+3/4,z+1/4
35 z+3/4,-y+1/4,-x+3/4
36 -z+1/4,y+3/4,x+1/4
37 -x+3/4,z+3/4,-y+1/4
38 x+1/4,-z+1/4,y+3/4
39 -y+3/4,x+3/4,-z+1/4
40 y+1/4,-x+1/4,z+3/4
41 -z+3/4,y+3/4,-x+1/4
42 z+1/4,-y+1/4,x+3/4
43 -x+1/4,-z+3/4,y+3/4
44 x+3/4,z+1/4,-y+1/4
45 -y+1/4,-x+3/4,z+3/4
46 y+3/4,x+1/4,-z+1/4
47 -z+1/4,-y+3/4,x+3/4
48 z+3/4,y+1/4,-x+1/4
49 x+1/2,y+1/2,z+1/2
50 -x+1/2,-y+1/2,-z+1/2
51 x,-y,-z+1/2
52 -x,y,z+1/2
53 -x+1/2,y,-z
54 x+1/2,-y,z
55 -x,-y+1/2,z
56 x,y+1/2,-z
57 z+1/2,x+1/2,y+1/2
58 -z+1/2,-x+1/2,-y+1/2
59 z,-x,-y+1/2
60 -z,x,y+1/2
61 -z+1/2,x,-y
62 z+1/2,-x,y
63 -z,-x+1/2,y
64 z,x+1/2,-y
65 y+1/2,z+1/2,x+1/2
66 -y+1/2,-z+1/2,-x+1/2
67 y,-z,-x+1/2
68 -y,z,x+1/2
69 -y+1/2,z,-x
70 y+1/2,-z,x
71 -y,-z+1/2,x
72 y,z+1/2,-x
73 x+3/4,z+3/4,y+3/4
74 -x+1/4,-z+1/4,-y+1/4
75 y+3/4,x+3/4,z+3/4
76 -y+1/4,-x+1/4,-z+1/4
77 z+3/4,y+3/4,x+3/4
78 -z+1/4,-y+1/4,-x+1/4
79 x+1/4,-z+3/4,-y+1/4
80 -x+3/4,z+1/4,y+3/4
81 y+1/4,-x+3/4,-z+1/4
82 -y+3/4,x+1/4,z+3/4
83 z+1/4,-y+3/4,-x+1/4
84 -z+3/4,y+1/4,x+3/4
85 -x+1/4,z+1/4,-y+3/4
86 x+3/4,-z+3/4,y+1/4
87 -y+1/4,x+1/4,-z+3/4
88 y+3/4,-x+3/4,z+1/4
89 -z+1/4,y+1/4,-x+3/4
90 z+3/4,-y+3/4,x+1/4
91 -x+3/4,-z+1/4,y+1/4
92 x+1/4,z+3/4,-y+3/4
93 -y+3/4,-x+1/4,z+1/4
94 y+1/4,x+3/4,-z+3/4
95 -z+3/4,-y+1/4,x+1/4
96 z+1/4,y+3/4,-x+3/4

loop_
_atom_site_label
_atom_site_type_symbol
_atom_site_fract_x
_atom_site_fract_y
_atom_site_fract_z
_atom_site_U_iso_or_equiv
_atom_site_symmetry_multiplicity
_atom_site_Wyckoff_symbol
_atom_site_occupancy
Ca1 Ca 0.125 0.0 0.25 0.015 24 c 0.667
Ag2 Ag 0.125 0.0 0.25 0.015 24 c 0.333
Co3 Co 0.0 0.0 0.0 0.009 16 a 1.0
V4 V 0.375 0.0 0.25 0.007 24 d 1.0
O5 O -0.0402 0.0496 0.1547 0.012 96 h 1.0

