data_00-062-0836
# Copyright 2025 International Centre for Diffraction Data. All rights reserved.

_audit_creation_date                  2025-07-06
_audit_creation_method                'Generated by PDF-5+ 2025 4.25.0.2'

_chemical_name_systematic             'Magnesium Titanium Oxide'
_chemical_name_common                 karrooite
_chemical_formula_moiety              'Mg Ti2 O5'
_chemical_formula_sum                 'Mg O5 Ti2'
_chemical_formula_weight              200.03

_cell_length_a                        3.758(2)
_cell_length_b                        9.838
_cell_length_c                        10.090
_cell_angle_alpha                     90.0
_cell_angle_beta                      90.0
_cell_angle_gamma                     90.0
_cell_formula_units_Z                 4
_cell_volume                          373.04
_symmetry_cell_setting                orthorhombic
_symmetry_space_group_name_H-M        Cmcm
_symmetry_Int_Tables_number           63

loop_
_symmetry_equiv_pos_site_id
_symmetry_equiv_pos_as_xyz
1 x,y,z
2 -x,-y,-z
3 x,-y,-z
4 -x,y,z
5 x,y,-z+1/2
6 -x,-y,z+1/2
7 x,-y,z+1/2
8 -x,y,-z+1/2
9 x+1/2,y+1/2,z
10 -x+1/2,-y+1/2,-z
11 x+1/2,-y+1/2,-z
12 -x+1/2,y+1/2,z
13 x+1/2,y+1/2,-z+1/2
14 -x+1/2,-y+1/2,z+1/2
15 x+1/2,-y+1/2,z+1/2
16 -x+1/2,y+1/2,-z+1/2

loop_
_atom_site_label
_atom_site_type_symbol
_atom_site_fract_x
_atom_site_fract_y
_atom_site_fract_z
_atom_site_B_iso_or_equiv
_atom_site_symmetry_multiplicity
_atom_site_Wyckoff_symbol
_atom_site_occupancy
Mg1 Mg 0.0 0.1792 0.25 . 4 c 0.333
Ti2 Ti 0.0 0.1792 0.25 . 4 c 0.667
Mg3 Mg 0.0 0.1288 0.5638 . 8 f 0.333
Ti4 Ti 0.0 0.1288 0.5638 . 8 f 0.667
O5 O 0.0 0.0471 0.1148 . 8 f 1.0
O6 O 0.0 0.7643 0.25 . 4 c 1.0
O7 O 0.0 0.3296 0.065 . 8 f 1.0

