data_00-053-0240
# Copyright 2025 International Centre for Diffraction Data. All rights reserved.

_audit_creation_date                  2025-07-04
_audit_creation_method                'Generated by PDF-5+ 2025 4.25.0.2'

_chemical_name_systematic             'Mercury Tin Bromide Phosphide'
_chemical_formula_moiety              'Hg7 Sn P4 Br6'
_chemical_formula_sum                 'Br6 Hg7 P4 Sn'
_chemical_formula_weight              2126.16

# Atomic parameters are cross-referenced from PDF entry 04-018-8635

_cell_length_a                        12.490(1)
_cell_length_b                        12.490(1)
_cell_length_c                        12.490(1)
_cell_angle_alpha                     90
_cell_angle_beta                      90
_cell_angle_gamma                     90
_cell_formula_units_Z                 4
_cell_volume                          1948.44
_symmetry_cell_setting                cubic
_symmetry_space_group_name_H-M        P213
_symmetry_Int_Tables_number           198

loop_
_symmetry_equiv_pos_site_id
_symmetry_equiv_pos_as_xyz
1 x,y,z
2 z,x,y
3 y,z,x
4 x+1/2,-y+1/2,-z
5 z+1/2,-x+1/2,-y
6 y+1/2,-z+1/2,-x
7 -x,y+1/2,-z+1/2
8 -z,x+1/2,-y+1/2
9 -y,z+1/2,-x+1/2
10 -x+1/2,-y,z+1/2
11 -z+1/2,-x,y+1/2
12 -y+1/2,-z,x+1/2

loop_
_atom_site_label
_atom_site_type_symbol
_atom_site_fract_x
_atom_site_fract_y
_atom_site_fract_z
_atom_site_U_iso_or_equiv
_atom_site_symmetry_multiplicity
_atom_site_Wyckoff_symbol
_atom_site_occupancy
Hg1 Hg 0.0382 0.9618 0.4618 0.0084 4 a 1.0
Hg2 Hg 0.07539 0.68038 0.40269 0.00597 12 b 1.0
Hg3 Hg 0.43051 0.50427 0.25169 0.00773 12 b 1.0
Sn4 Sn 0.26125 0.26125 0.26125 0.0095 4 a 1.0
Br5 Br 0.1808 0.5237 0.2567 0.01673 12 b 1.0
Br6 Br 0.31 0.0568 0.2039 0.0129 12 b 1.0
P7 P 0.6476 0.6476 0.6476 0.005 4 a 1.0
P8 P 0.4279 0.4279 0.4279 0.009 4 a 1.0
P9 P 0.9311 0.9311 0.9311 0.006 4 a 1.0
P10 P 0.032 0.032 0.032 0.004 4 a 1.0

loop_
_atom_site_aniso_label
_atom_site_aniso_U_11
_atom_site_aniso_U_12
_atom_site_aniso_U_13
_atom_site_aniso_U_22
_atom_site_aniso_U_23
_atom_site_aniso_U_33
Hg1 0.0084 0.0025 0.0025 0.0084 -0.0025 0.0084
Hg2 0.0069 -0.0035 -0.0015 0.0026 0.0034 0.0084
Hg3 0.0099 -0.0013 7.0E-4 0.0107 0.004 0.0026
Sn4 0.0095 -0.0032 -0.0032 0.0095 -0.0032 0.0095
Br5 0.0136 0.0114 0.0044 0.0224 -0.0059 0.0142
Br6 0.0098 -0.0036 9.0E-4 0.0062 0.0 0.0227
P7 0.005 -0.002 -0.002 0.005 -0.002 0.005
P8 0.009 0.005 0.005 0.009 0.005 0.009
P9 0.006 0.005 0.005 0.006 0.005 0.006
P10 0.004 -0.001 -0.001 0.004 -0.001 0.004

