data_00-070-0126
# Copyright 2025 International Centre for Diffraction Data. All rights reserved.

_audit_creation_date                  2025-07-06
_audit_creation_method                'Generated by PDF-5+ 2025 4.25.0.2'

_chemical_name_systematic             'Calcium Europium Phosphate'
_chemical_formula_moiety              'Ca9 Eu ( P O4 )7'
_chemical_formula_sum                 'Ca9 Eu O28 P7'
_chemical_formula_weight              1177.46

_cell_length_a                        10.4368(4)
_cell_length_b                        10.4368(4)
_cell_length_c                        37.348(3)
_cell_angle_alpha                     90
_cell_angle_beta                      90
_cell_angle_gamma                     120
_cell_formula_units_Z                 6
_cell_volume                          3523.16
_symmetry_cell_setting                hexagonal
_symmetry_space_group_name_H-M        R3cH
_symmetry_Int_Tables_number           161

loop_
_symmetry_equiv_pos_site_id
_symmetry_equiv_pos_as_xyz
1 x,y,z
2 -y,x-y,z
3 -x+y,-x,z
4 -y,-x,z+1/2
5 x,x-y,z+1/2
6 -x+y,y,z+1/2
7 x+2/3,y+1/3,z+1/3
8 -y+2/3,x-y+1/3,z+1/3
9 -x+y+2/3,-x+1/3,z+1/3
10 -y+2/3,-x+1/3,z+5/6
11 x+2/3,x-y+1/3,z+5/6
12 -x+y+2/3,y+1/3,z+5/6
13 x+1/3,y+2/3,z+2/3
14 -y+1/3,x-y+2/3,z+2/3
15 -x+y+1/3,-x+2/3,z+2/3
16 -y+1/3,-x+2/3,z+1/6
17 x+1/3,x-y+2/3,z+1/6
18 -x+y+1/3,y+2/3,z+1/6

loop_
_atom_site_label
_atom_site_type_symbol
_atom_site_fract_x
_atom_site_fract_y
_atom_site_fract_z
_atom_site_U_iso_or_equiv
_atom_site_symmetry_multiplicity
_atom_site_Wyckoff_symbol
_atom_site_occupancy
Ca1 Ca 0.482 0.949 0.8317 0.003 . . 0.882
Eu2 Eu 0.482 0.949 0.8317 0.003 . . 0.118
Ca3 Ca 0.624 0.807 0.9651 0.003 . . 0.884
Eu4 Eu 0.624 0.807 0.9651 0.003 . . 0.116
Ca5 Ca 0.8251 1.215 0.8936 0.003 . . 0.91
Eu6 Eu 0.8251 1.215 0.8936 0.003 . . 0.09
Ca7 Ca 0.3333 0.6667 0.899 0.003 . . 1.0
P8 P 1.0 1.0 1.0008 0.013 . . 1.0
P9 P 0.685 0.83 0.8656 0.013 . . 1.0
P10 P 0.524 1.011 0.9318 0.013 . . 1.0
O11 O 0.721 0.82 0.906 0.002 . . 1.0
O12 O 0.743 0.749 0.843 0.002 . . 1.0
O13 O 0.752 0.996 0.855 0.002 . . 1.0
O14 O 0.519 0.761 0.8578 0.002 . . 1.0
O15 O 0.434 0.847 0.942 0.002 . . 1.0
O16 O 0.46 1.101 0.95 0.002 . . 1.0
O17 O 0.681 1.064 0.947 0.002 . . 1.0
O18 O 0.53 1.038 0.8912 0.002 . . 1.0
O19 O 0.854 0.864 0.99 0.002 . . 1.0
O20 O 1.0 1.0 1.043 0.002 . . 1.0

