data_00-069-0653
# Copyright 2025 International Centre for Diffraction Data. All rights reserved.

_audit_creation_date                  2025-07-06
_audit_creation_method                'Generated by PDF-5+ 2025 4.25.0.2'

_chemical_name_systematic             'Bismuth Magnesium Ytterbium'
_chemical_formula_moiety              'Yb14 Mg Bi11'
_chemical_formula_sum                 'Bi11 Mg Yb14'
_chemical_formula_weight              4745.84

_cell_length_a                        17.0507(12)
_cell_length_b                        17.0507(12)
_cell_length_c                        22.506(3)
_cell_angle_alpha                     90.0
_cell_angle_beta                      90.0
_cell_angle_gamma                     90.0
_cell_formula_units_Z                 8
_cell_volume                          6543.09
_symmetry_cell_setting                tetragonal
_symmetry_space_group_name_H-M        I41/acd
_symmetry_Int_Tables_number           142

loop_
_symmetry_equiv_pos_site_id
_symmetry_equiv_pos_as_xyz
1 x,y,z
2 -x,-y,-z
3 -x,y,z+1/2
4 x,-y,-z+1/2
5 y+3/4,x+3/4,z+3/4
6 -y+1/4,-x+1/4,-z+1/4
7 -y+1/4,x+3/4,z+1/4
8 y+3/4,-x+1/4,-z+3/4
9 x+1/2,-y,z
10 -x+1/2,y,-z
11 -x+1/2,-y,z+1/2
12 x+1/2,y,-z+1/2
13 y+1/4,-x+1/4,z+3/4
14 -y+3/4,x+3/4,-z+1/4
15 -y+3/4,-x+1/4,z+1/4
16 y+1/4,x+3/4,-z+3/4
17 x+1/2,y+1/2,z+1/2
18 -x+1/2,-y+1/2,-z+1/2
19 -x+1/2,y+1/2,z
20 x+1/2,-y+1/2,-z
21 y+1/4,x+1/4,z+1/4
22 -y+3/4,-x+3/4,-z+3/4
23 -y+3/4,x+1/4,z+3/4
24 y+1/4,-x+3/4,-z+1/4
25 x,-y+1/2,z+1/2
26 -x,y+1/2,-z+1/2
27 -x,-y+1/2,z
28 x,y+1/2,-z
29 y+3/4,-x+3/4,z+1/4
30 -y+1/4,x+1/4,-z+3/4
31 -y+1/4,-x+3/4,z+3/4
32 y+3/4,x+1/4,-z+1/4

loop_
_atom_site_label
_atom_site_type_symbol
_atom_site_fract_x
_atom_site_fract_y
_atom_site_fract_z
_atom_site_U_iso_or_equiv
_atom_site_symmetry_multiplicity
_atom_site_Wyckoff_symbol
_atom_site_occupancy
Yb1 Yb 0.04083 0.07419 0.17163 0.0406 . . 1.0
Yb2 Yb 0.02374 0.37687 0.00422 0.04447 . . 1.0
Yb3 Yb 0.35343 0.0 0.25 0.03907 . . 1.0
Yb4 Yb 0.34091 0.07292 0.09257 0.04393 . . 1.0
Mg5 Mg 0.0 0.25 0.375 0.03833 . . 1.0
Bi6 Bi 0.13942 0.38942 0.125 0.03773 . . 1.0
Bi7 Bi 0.35701 0.25636 0.05893 0.03953 . . 1.0
Bi8 Bi 0.13041 0.02744 0.04721 0.04023 . . 1.0
Bi9 Bi 0.0 0.25 0.125 0.03837 . . 1.0

loop_
_atom_site_aniso_label
_atom_site_aniso_U_11
_atom_site_aniso_U_12
_atom_site_aniso_U_13
_atom_site_aniso_U_22
_atom_site_aniso_U_23
_atom_site_aniso_U_33
Yb1 0.0395 4.0E-4 0.0023 0.0369 8.0E-4 0.0454
Yb2 0.0413 0.0051 0.0012 0.0436 -0.0028 0.0485
Yb3 0.0375 0.0 0.0 0.0378 0.0018 0.0419
Yb4 0.0517 0.0023 0.0047 0.0376 0.0019 0.0425
Mg5 0.042 0.0 0.0 0.042 0.0 0.031
Bi6 0.0358 -0.0011 5.0E-4 0.0358 -5.0E-4 0.0416
Bi7 0.0364 -0.0021 -0.0026 0.0372 0.0034 0.045
Bi8 0.0439 0.0048 0.0013 0.0368 -3.0E-4 0.04
Bi9 0.0363 0.0022 0.0 0.0363 0.0 0.0425

