data_00-063-0778
# Copyright 2025 International Centre for Diffraction Data. All rights reserved.

_audit_creation_date                  2025-07-06
_audit_creation_method                'Generated by PDF-5+ 2025 4.25.0.2'

_chemical_name_systematic             'Rubidium Calcium Niobium Oxide'
_chemical_name_common                 'rubidium dicalcium triniobate(V)'
_chemical_formula_moiety              'Rb Ca2 Nb3 O10'
_chemical_formula_sum                 'Ca2 Nb3 O10 Rb'
_chemical_formula_weight              604.33

_cell_length_a                        3.85865(6)
_cell_length_b                        3.85865(6)
_cell_length_c                        14.9108(3)
_cell_angle_alpha                     90.0
_cell_angle_beta                      90.0
_cell_angle_gamma                     90.0
_cell_formula_units_Z                 1
_cell_volume                          222.01
_symmetry_cell_setting                tetragonal
_symmetry_space_group_name_H-M        P4/mmm
_symmetry_Int_Tables_number           123

loop_
_symmetry_equiv_pos_site_id
_symmetry_equiv_pos_as_xyz
1 x,y,z
2 -x,-y,-z
3 -x,-y,z
4 x,y,-z
5 -x,y,z
6 x,-y,-z
7 x,-y,z
8 -x,y,-z
9 -y,x,z
10 y,-x,-z
11 y,-x,z
12 -y,x,-z
13 y,x,z
14 -y,-x,-z
15 -y,-x,z
16 y,x,-z

loop_
_atom_site_label
_atom_site_type_symbol
_atom_site_fract_x
_atom_site_fract_y
_atom_site_fract_z
_atom_site_U_iso_or_equiv
_atom_site_symmetry_multiplicity
_atom_site_Wyckoff_symbol
_atom_site_occupancy
Rb1 Rb 0.5 0.5 0.5 0.0433 . . 1.0
Ca2 Ca 0.5 0.5 0.14706 0.0281 . . 1.0
Nb3 Nb 0.0 0.0 0.0 0.0127 . . 1.0
Nb4 Nb 0.0 0.0 0.28537 0.0134 . . 1.0
O5 O 0.0 0.5 0.0 0.0716 . . 1.0
O6 O 0.0 0.0 0.1258 0.0716 . . 1.0
O7 O 0.0 0.5 0.2599 0.0716 . . 1.0
O8 O 0.0 0.0 0.396 0.0716 . . 1.0

