data_00-055-0860
# Copyright 2025 International Centre for Diffraction Data. All rights reserved.

_audit_creation_date                  2025-07-04
_audit_creation_method                'Generated by PDF-5+ 2025 4.25.0.2'

_chemical_name_systematic             'Strontium Samarium Niobium Oxide'
_chemical_formula_moiety              'Sr2 Sm Nb O6'
_chemical_formula_sum                 'Nb O6 Sm Sr2'
_chemical_formula_weight              514.50

# Atomic parameters are cross-referenced from PDF entry 00-063-0698

_cell_length_a                        5.84647(9)
_cell_length_b                        5.93168(12)
_cell_length_c                        8.31430(17)
_cell_angle_alpha                     90.0
_cell_angle_beta                      90.2129(15)
_cell_angle_gamma                     90.0
_cell_formula_units_Z                 2
_cell_volume                          288.33
_symmetry_cell_setting                monoclinic
_symmetry_space_group_name_H-M        P121/n1
_symmetry_Int_Tables_number           14

loop_
_symmetry_equiv_pos_site_id
_symmetry_equiv_pos_as_xyz
1 x,y,z
2 -x,-y,-z
3 x+1/2,-y+1/2,z+1/2
4 -x+1/2,y+1/2,-z+1/2

loop_
_atom_site_label
_atom_site_type_symbol
_atom_site_fract_x
_atom_site_fract_y
_atom_site_fract_z
_atom_site_U_iso_or_equiv
_atom_site_symmetry_multiplicity
_atom_site_Wyckoff_symbol
_atom_site_occupancy
Sm1 Sm 0.0 0.0 0.0 0.004 . . 1.0
Nb2 Nb 0.0 0.0 0.5 0.0046 . . 1.0
Sr3 Sr 0.0099 0.5374 0.752 0.0071 . . 1.0
O4 O 0.1991 0.3303 -0.0397 0.0156 . . 1.0
O5 O 0.4009 0.5316 0.2356 0.0156 . . 1.0
O6 O 0.1842 0.2855 0.5519 0.0156 . . 1.0

