data_00-059-0234
# Copyright 2025 International Centre for Diffraction Data. All rights reserved.

_audit_creation_date                  2025-07-04
_audit_creation_method                'Generated by PDF-5+ 2025 4.25.0.2'

_chemical_name_systematic             'Cadmium Copper Manganese Tin Selenide'
_chemical_formula_moiety              'Cd0.5 Cu2 Mn0.5 Sn Se4'
_chemical_formula_sum                 'Cd0.5 Cu2 Mn0.5 Se4 Sn'
_chemical_formula_weight              645.32

# Atomic parameters are cross-referenced from PDF entry 04-013-4597

_cell_length_a                        5.7935(2)
_cell_length_b                        5.7935(2)
_cell_length_c                        11.4036(5)
_cell_angle_alpha                     90
_cell_angle_beta                      90
_cell_angle_gamma                     90
_cell_formula_units_Z                 2
_cell_volume                          382.76
_symmetry_cell_setting                tetragonal
_symmetry_space_group_name_H-M        I-42m
_symmetry_Int_Tables_number           121

loop_
_symmetry_equiv_pos_site_id
_symmetry_equiv_pos_as_xyz
1 x,y,z
2 -x,-y,z
3 -x,y,-z
4 x,-y,-z
5 -y,x,-z
6 y,-x,-z
7 y,x,z
8 -y,-x,z
9 x+1/2,y+1/2,z+1/2
10 -x+1/2,-y+1/2,z+1/2
11 -x+1/2,y+1/2,-z+1/2
12 x+1/2,-y+1/2,-z+1/2
13 -y+1/2,x+1/2,-z+1/2
14 y+1/2,-x+1/2,-z+1/2
15 y+1/2,x+1/2,z+1/2
16 -y+1/2,-x+1/2,z+1/2

loop_
_atom_site_label
_atom_site_type_symbol
_atom_site_fract_x
_atom_site_fract_y
_atom_site_fract_z
_atom_site_B_iso_or_equiv
_atom_site_symmetry_multiplicity
_atom_site_Wyckoff_symbol
_atom_site_occupancy
Cu1 Cu 0.5 0.0 0.25 1.06 4 d 1.0
Mn2 Mn 0.0 0.0 0.0 1.8 2 a 0.51
Cd3 Cd 0.0 0.0 0.0 1.8 2 a 0.49
Sn4 Sn 0.0 0.0 0.5 0.41 2 b 1.0
Se5 Se 0.2488 0.2488 0.1355 0.96 8 i 1.0

