data_00-063-0769
# Copyright 2025 International Centre for Diffraction Data. All rights reserved.

_audit_creation_date                  2025-07-06
_audit_creation_method                'Generated by PDF-5+ 2025 4.25.0.2'

_chemical_name_systematic             'Potassium Yttrium Hafnium Phosphate'
_chemical_name_common                 'potassium yttrium hafnium tris(orthophosphate)'
_chemical_formula_moiety              'K2 Y Hf ( P O4 )3'
_chemical_formula_sum                 'Hf K2 O12 P3 Y'
_chemical_formula_weight              630.50

_cell_length_a                        10.30748(9)
_cell_length_b                        10.30748(9)
_cell_length_c                        10.30748(9)
_cell_angle_alpha                     90.0
_cell_angle_beta                      90.0
_cell_angle_gamma                     90.0
_cell_formula_units_Z                 4
_cell_volume                          1095.11
_symmetry_cell_setting                cubic
_symmetry_space_group_name_H-M        P213
_symmetry_Int_Tables_number           198

loop_
_symmetry_equiv_pos_site_id
_symmetry_equiv_pos_as_xyz
1 x,y,z
2 z,x,y
3 y,z,x
4 x+1/2,-y+1/2,-z
5 z+1/2,-x+1/2,-y
6 y+1/2,-z+1/2,-x
7 -x,y+1/2,-z+1/2
8 -z,x+1/2,-y+1/2
9 -y,z+1/2,-x+1/2
10 -x+1/2,-y,z+1/2
11 -z+1/2,-x,y+1/2
12 -y+1/2,-z,x+1/2

loop_
_atom_site_label
_atom_site_type_symbol
_atom_site_fract_x
_atom_site_fract_y
_atom_site_fract_z
_atom_site_U_iso_or_equiv
_atom_site_symmetry_multiplicity
_atom_site_Wyckoff_symbol
_atom_site_occupancy
K1 K 0.6984 0.6984 0.6984 . . . 1.0
K2 K 0.9307 0.9307 0.9307 . . . 1.0
Y3 Y 0.14694 0.14694 0.14694 . . . 0.395
Y4 Y 0.41559 0.41559 0.41559 . . . 0.605
Hf5 Hf 0.14694 0.14694 0.14694 . . . 0.605
Hf6 Hf 0.41559 0.41559 0.41559 . . . 0.395
P7 P 0.4609 0.2311 0.1292 . . . 1.0
O8 O 0.3207 0.2448 0.0864 . . . 1.0
O9 O 0.5337 0.3118 0.0155 . . . 1.0
O10 O 0.497 0.0965 0.1595 . . . 1.0
O11 O 0.475 0.3063 0.2526 . . . 1.0

