data_00-054-1155
# Copyright 2025 International Centre for Diffraction Data. All rights reserved.

_audit_creation_date                  2025-07-04
_audit_creation_method                'Generated by PDF-5+ 2025 4.25.0.2'

_chemical_name_systematic             'Potassium Titanium Niobium Oxide'
_chemical_formula_moiety              'K Ti Nb O5'
_chemical_formula_sum                 'K Nb O5 Ti'
_chemical_formula_weight              259.87

# Atomic parameters are cross-referenced from PDF entry 04-010-2961

_cell_length_a                        6.447
_cell_length_b                        3.797
_cell_length_c                        18.431
_cell_angle_alpha                     90.0
_cell_angle_beta                      90.0
_cell_angle_gamma                     90.0
_cell_formula_units_Z                 4
_cell_volume                          451.18
_symmetry_cell_setting                orthorhombic
_symmetry_space_group_name_H-M        Pnma
_symmetry_Int_Tables_number           62

loop_
_symmetry_equiv_pos_site_id
_symmetry_equiv_pos_as_xyz
1 x,y,z
2 -x,-y,-z
3 x+1/2,-y+1/2,-z+1/2
4 -x+1/2,y+1/2,z+1/2
5 -x,y+1/2,-z
6 x,-y+1/2,z
7 -x+1/2,-y,z+1/2
8 x+1/2,y,-z+1/2

loop_
_atom_site_label
_atom_site_type_symbol
_atom_site_fract_x
_atom_site_fract_y
_atom_site_fract_z
_atom_site_B_iso_or_equiv
_atom_site_symmetry_multiplicity
_atom_site_Wyckoff_symbol
_atom_site_occupancy
Nb1 Nb 0.323 0.25 0.0314 . 4 c 0.25
O2 O 0.828 0.25 0.207 . 4 c 1.0
O3 O 0.088 0.25 0.078 . 4 c 1.0
O4 O 0.234 0.25 0.923 . 4 c 1.0
K5 K 0.791 0.25 0.804 0.8 4 c 1.0
Ti6 Ti 0.764 0.25 0.1112 . 4 c 0.25
Nb7 Nb 0.764 0.25 0.1112 . 4 c 0.75
O8 O 0.668 0.25 0.002 . 4 c 1.0
O9 O 0.464 0.25 0.119 . 4 c 1.0
Ti10 Ti 0.323 0.25 0.0314 . 4 c 0.75

