data_00-054-1203
# Copyright 2025 International Centre for Diffraction Data. All rights reserved.

_audit_creation_date                  2025-07-04
_audit_creation_method                'Generated by PDF-5+ 2025 4.25.0.2'

_chemical_name_systematic             'Potassium Terbium Tungstate'
_chemical_formula_moiety              'K Tb ( W O4 )2'
_chemical_formula_sum                 'K O8 Tb W2'
_chemical_formula_weight              693.70

# Atomic parameters are cross-referenced from PDF entry 04-020-5880

_cell_length_a                        10.6637(2)
_cell_length_b                        10.4085(2)
_cell_length_c                        7.57890(10)
_cell_angle_alpha                     90
_cell_angle_beta                      130.7370(10)
_cell_angle_gamma                     90
_cell_formula_units_Z                 4
_cell_volume                          637.39
_symmetry_cell_setting                monoclinic
_symmetry_space_group_name_H-M        C2/c
_symmetry_Int_Tables_number           15

loop_
_symmetry_equiv_pos_site_id
_symmetry_equiv_pos_as_xyz
1 x,y,z
2 -x,-y,-z
3 -x,y,-z+1/2
4 x,-y,z+1/2
5 x+1/2,y+1/2,z
6 -x+1/2,-y+1/2,-z
7 -x+1/2,y+1/2,-z+1/2
8 x+1/2,-y+1/2,z+1/2

loop_
_atom_site_label
_atom_site_type_symbol
_atom_site_fract_x
_atom_site_fract_y
_atom_site_fract_z
_atom_site_U_iso_or_equiv
_atom_site_symmetry_multiplicity
_atom_site_Wyckoff_symbol
_atom_site_occupancy
K1 K 0.5 0.7993 0.25 0.014 4 e 1.0
Tb2 Tb 0.5 0.22838 0.25 0.0036 4 e 1.0
W3 W 0.30439 0.50004 0.26422 0.00332 8 f 1.0
O4 O 0.1266 0.5788 0.1884 0.0073 8 f 1.0
O5 O 0.5248 0.3925 0.4727 0.0053 8 f 1.0
O6 O 0.3109 0.5751 0.0599 0.0067 8 f 1.0
O7 O 0.226 0.3421 0.128 0.0081 8 f 1.0

