data_00-058-0333
# Copyright 2025 International Centre for Diffraction Data. All rights reserved.

_audit_creation_date                  2025-07-04
_audit_creation_method                'Generated by PDF-5+ 2025 4.25.0.2'

_chemical_name_systematic             'Lead Silver Terbium'
_chemical_formula_moiety              'Pb Ag Tb'
_chemical_formula_sum                 'Ag Pb Tb'
_chemical_formula_weight              473.98

# Atomic parameters are cross-referenced from PDF entry 04-019-3007

_cell_length_a                        4.7524(3)
_cell_length_b                        4.7524(3)
_cell_length_c                        7.4322(3)
_cell_angle_alpha                     90
_cell_angle_beta                      90
_cell_angle_gamma                     120
_cell_formula_units_Z                 2
_cell_volume                          145.37
_symmetry_cell_setting                hexagonal
_symmetry_space_group_name_H-M        P63mc
_symmetry_Int_Tables_number           186

loop_
_symmetry_equiv_pos_site_id
_symmetry_equiv_pos_as_xyz
1 x,y,z
2 -y,x-y,z
3 -x+y,-x,z
4 -y,-x,z
5 x,x-y,z
6 -x+y,y,z
7 -x,-y,z+1/2
8 y,-x+y,z+1/2
9 x-y,x,z+1/2
10 y,x,z+1/2
11 -x,-x+y,z+1/2
12 x-y,-y,z+1/2

loop_
_atom_site_label
_atom_site_type_symbol
_atom_site_fract_x
_atom_site_fract_y
_atom_site_fract_z
_atom_site_B_iso_or_equiv
_atom_site_symmetry_multiplicity
_atom_site_Wyckoff_symbol
_atom_site_occupancy
Tb1 Tb 0.0 0.0 0.0 0.88 2 a 1.0
Ag2 Ag 0.33333 0.66666 0.8168 1.2 2 b 1.0
Pb3 Pb 0.33333 0.66666 0.2284 0.73 2 b 1.0

