data_00-069-0439
# Copyright 2025 International Centre for Diffraction Data. All rights reserved.

_audit_creation_date                  2025-07-06
_audit_creation_method                'Generated by PDF-5+ 2025 4.25.0.2'

_chemical_name_systematic             'Antimony Tellurium'
_chemical_formula_moiety              'Sb2 Te3'
_chemical_formula_sum                 'Sb2 Te3'
_chemical_formula_weight              626.32

_cell_length_a                        15.64430
_cell_length_b                        4.28215
_cell_length_c                        9.38267
_cell_angle_alpha                     90.0
_cell_angle_beta                      89.70189
_cell_angle_gamma                     90.0
_cell_formula_units_Z                 4
_cell_volume                          628.55
_symmetry_cell_setting                monoclinic
_symmetry_space_group_name_H-M        C12/m1
_symmetry_Int_Tables_number           12

loop_
_symmetry_equiv_pos_site_id
_symmetry_equiv_pos_as_xyz
1 x,y,z
2 -x,-y,-z
3 x,-y,z
4 -x,y,-z
5 x+1/2,y+1/2,z
6 -x+1/2,-y+1/2,-z
7 x+1/2,-y+1/2,z
8 -x+1/2,y+1/2,-z

loop_
_atom_site_label
_atom_site_type_symbol
_atom_site_fract_x
_atom_site_fract_y
_atom_site_fract_z
_atom_site_B_iso_or_equiv
_atom_site_symmetry_multiplicity
_atom_site_Wyckoff_symbol
_atom_site_occupancy
Sb1 Sb 0.96832 0.0 0.19322 0.95 . . 1.0
Sb2 Sb 0.23977 0.0 0.21242 0.98 . . 1.0
Te3 Te 0.84706 0.0 0.41935 1.05 . . 1.0
Te4 Te 0.42533 0.0 0.58156 0.93 . . 1.0
Te5 Te 0.62436 0.0 0.00127 0.92 . . 1.0

