data_00-054-0234
# Copyright 2025 International Centre for Diffraction Data. All rights reserved.

_audit_creation_date                  2025-07-04
_audit_creation_method                'Generated by PDF-5+ 2025 4.25.0.2'

_chemical_name_systematic             'Cobalt Strontium Yttrium Oxide'
_chemical_formula_moiety              'Sr0.7 Y0.3 Co O2.62'
_chemical_formula_sum                 'Co O2.62 Sr0.7 Y0.3'
_chemical_formula_weight              188.86

# Atomic parameters are cross-referenced from PDF entry 04-014-6291

_cell_length_a                        7.62389(1)
_cell_length_b                        7.62389(1)
_cell_length_c                        15.32701(5)
_cell_angle_alpha                     90
_cell_angle_beta                      90
_cell_angle_gamma                     90
_cell_formula_units_Z                 4
_cell_volume                          890.86
_symmetry_cell_setting                tetragonal
_symmetry_space_group_name_H-M        I4/mmm
_symmetry_Int_Tables_number           139

loop_
_symmetry_equiv_pos_site_id
_symmetry_equiv_pos_as_xyz
1 x,y,z
2 -x,-y,-z
3 -x,-y,z
4 x,y,-z
5 -x,y,z
6 x,-y,-z
7 x,-y,z
8 -x,y,-z
9 -y,x,z
10 y,-x,-z
11 y,-x,z
12 -y,x,-z
13 y,x,z
14 -y,-x,-z
15 -y,-x,z
16 y,x,-z
17 x+1/2,y+1/2,z+1/2
18 -x+1/2,-y+1/2,-z+1/2
19 -x+1/2,-y+1/2,z+1/2
20 x+1/2,y+1/2,-z+1/2
21 -x+1/2,y+1/2,z+1/2
22 x+1/2,-y+1/2,-z+1/2
23 x+1/2,-y+1/2,z+1/2
24 -x+1/2,y+1/2,-z+1/2
25 -y+1/2,x+1/2,z+1/2
26 y+1/2,-x+1/2,-z+1/2
27 y+1/2,-x+1/2,z+1/2
28 -y+1/2,x+1/2,-z+1/2
29 y+1/2,x+1/2,z+1/2
30 -y+1/2,-x+1/2,-z+1/2
31 -y+1/2,-x+1/2,z+1/2
32 y+1/2,x+1/2,-z+1/2

loop_
_atom_site_label
_atom_site_type_symbol
_atom_site_fract_x
_atom_site_fract_y
_atom_site_fract_z
_atom_site_B_iso_or_equiv
_atom_site_symmetry_multiplicity
_atom_site_Wyckoff_symbol
_atom_site_occupancy
Sr1 Sr 0.0 0.0 0.87856 1.16 4 e 0.7
Y2 Y 0.0 0.0 0.87856 1.16 4 e 0.3
Sr3 Sr 0.0 0.5 0.86701 0.81 8 g 0.7
Y4 Y 0.0 0.5 0.86701 0.81 8 g 0.3
Sr5 Sr 0.0 0.0 0.35037 0.74 4 e 0.7
Y6 Y 0.0 0.0 0.35037 0.74 4 e 0.3
Co7 Co 0.7483 0.7483 0.0 1.07 8 h 1.0
Co8 Co 0.25 0.75 0.25 0.43 8 f 1.0
O9 O 0.0 0.2493 0.233 0.79 16 n 1.0
O10 O 0.2905 0.2905 0.1176 1.52 16 m 1.0
O11 O 0.0 0.724 0.0 1.8 8 i 1.0
O12 O 0.387 0.5 0.0 0.2 8 j 0.25

