data_00-061-0107
# Copyright 2025 International Centre for Diffraction Data. All rights reserved.

_audit_creation_date                  2025-07-04
_audit_creation_method                'Generated by PDF-5+ 2025 4.25.0.2'

_chemical_name_systematic             'Antimony Iron Neodymium'
_chemical_formula_moiety              'Nd Fe Sb3'
_chemical_formula_sum                 'Fe Nd Sb3'
_chemical_formula_weight              565.37

# Atomic parameters are cross-referenced from PDF entry 04-016-2499

_cell_length_a                        12.6828(2)
_cell_length_b                        6.1666(2)
_cell_length_c                        18.1867(4)
_cell_angle_alpha                     90
_cell_angle_beta                      90
_cell_angle_gamma                     90
_cell_formula_units_Z                 12
_cell_volume                          1422.38
_symmetry_cell_setting                orthorhombic
_symmetry_space_group_name_H-M        Pbcm
_symmetry_Int_Tables_number           57

loop_
_symmetry_equiv_pos_site_id
_symmetry_equiv_pos_as_xyz
1 x,y,z
2 -x,-y,-z
3 -x,-y,z+1/2
4 x,y,-z+1/2
5 x,-y+1/2,-z
6 -x,y+1/2,z
7 -x,y+1/2,-z+1/2
8 x,-y+1/2,z+1/2

loop_
_atom_site_label
_atom_site_type_symbol
_atom_site_fract_x
_atom_site_fract_y
_atom_site_fract_z
_atom_site_B_iso_or_equiv
_atom_site_symmetry_multiplicity
_atom_site_Wyckoff_symbol
_atom_site_occupancy
Nd1 Nd 0.3055 0.5134 0.75 0.8 4 d 1.0
Nd2 Nd 0.3005 0.0082 0.5847 0.9 8 e 1.0
Fe3 Fe 0.1154 0.75 0.5 3.4 4 c 1.0
Fe4 Fe 0.0942 0.311 0.6739 4.0 8 e 1.0
Sb5 Sb 0.4971 0.294 0.6649 1.1 8 e 1.0
Sb6 Sb 0.2189 0.025 0.75 4.5 4 d 1.0
Sb7 Sb 0.5091 0.25 0.5 1.9 4 c 1.0
Sb8 Sb 0.2228 0.5002 0.5791 1.2 8 e 1.0
Sb9 Sb 0.9736 0.5441 0.5826 3.9 8 e 1.0
Sb10 Sb 0.0563 0.646 0.75 5.7 4 d 1.0

