data_00-072-0333
# Copyright 2025 International Centre for Diffraction Data. All rights reserved.

_audit_creation_date                  2025-07-06
_audit_creation_method                'Generated by PDF-5+ 2025 4.25.0.2'

_chemical_name_systematic             'Lanthanum Vanadate'
_chemical_formula_moiety              'La V O4'
_chemical_formula_sum                 'La O4 V'
_chemical_formula_weight              253.84

_cell_length_a                        7.04213
_cell_length_b                        7.27983
_cell_length_c                        6.72023
_cell_angle_alpha                     90.00000
_cell_angle_beta                      104.83232
_cell_angle_gamma                     90.00000
_cell_formula_units_Z                 4
_cell_volume                          333.04
_symmetry_cell_setting                monoclinic
_symmetry_space_group_name_H-M        P121/n1
_symmetry_Int_Tables_number           14

loop_
_symmetry_equiv_pos_site_id
_symmetry_equiv_pos_as_xyz
1 x,y,z
2 -x,-y,-z
3 x+1/2,-y+1/2,z+1/2
4 -x+1/2,y+1/2,-z+1/2

loop_
_atom_site_label
_atom_site_type_symbol
_atom_site_fract_x
_atom_site_fract_y
_atom_site_fract_z
_atom_site_U_iso_or_equiv
_atom_site_symmetry_multiplicity
_atom_site_Wyckoff_symbol
_atom_site_occupancy
La1 La 0.27718 0.15986 0.10346 . . . 1.0
V2 V 0.30122 0.16042 -0.38205 . . . 1.0
O3 O 0.26937 0.51467 0.07396 . . . 1.0
O4 O 0.6499 0.27963 0.25548 . . . 1.0
O5 O 0.5489 -0.10812 0.19236 . . . 1.0
O6 O 0.13204 -0.17019 0.01279 . . . 1.0

