data_00-059-0305
# Copyright 2025 International Centre for Diffraction Data. All rights reserved.

_audit_creation_date                  2025-07-04
_audit_creation_method                'Generated by PDF-5+ 2025 4.25.0.2'

_chemical_name_systematic             'Indium Neodymium Palladium'
_chemical_formula_moiety              'In8 Nd2 Pd'
_chemical_formula_sum                 'In8 Nd2 Pd'
_chemical_formula_weight              1313.45

_cell_length_a                        4.68417(3)
_cell_length_b                        4.68417(3)
_cell_length_c                        12.17194(1)
_cell_angle_alpha                     90.0
_cell_angle_beta                      90.0
_cell_angle_gamma                     90.0
_cell_formula_units_Z                 1
_cell_volume                          267.07
_symmetry_cell_setting                tetragonal
_symmetry_space_group_name_H-M        P4/mmm
_symmetry_Int_Tables_number           123

loop_
_symmetry_equiv_pos_site_id
_symmetry_equiv_pos_as_xyz
1 x,y,z
2 -x,-y,-z
3 -x,-y,z
4 x,y,-z
5 -x,y,z
6 x,-y,-z
7 x,-y,z
8 -x,y,-z
9 -y,x,z
10 y,-x,-z
11 y,-x,z
12 -y,x,-z
13 y,x,z
14 -y,-x,-z
15 -y,-x,z
16 y,x,-z

loop_
_atom_site_label
_atom_site_type_symbol
_atom_site_fract_x
_atom_site_fract_y
_atom_site_fract_z
_atom_site_B_iso_or_equiv
_atom_site_symmetry_multiplicity
_atom_site_Wyckoff_symbol
_atom_site_occupancy
ND1 ND 0.0 0.0 0.3076 0.51 . . 1.0
PD2 PD 0.0 0.0 0.0 0.71 . . 1.0
IN3 IN 0.0 0.5 0.12189 0.62 . . 1.0
IN4 IN 0.0 0.5 0.5 0.7 . . 1.0
IN5 IN 0.5 0.5 0.3075 0.63 . . 1.0

