data_00-067-0478
# Copyright 2025 International Centre for Diffraction Data. All rights reserved.

_audit_creation_date                  2025-07-06
_audit_creation_method                'Generated by PDF-5+ 2025 4.25.0.2'

_chemical_name_systematic             'Calcium Cobalt Iridium Lanthanum Oxide'
_chemical_formula_moiety              '( La1.5 Ca0.5 ) ( Co Ir ) O6'
_chemical_formula_sum                 'Ca0.5 Co Ir La1.5 O6'
_chemical_formula_weight              575.54

_cell_length_a                        5.5495(3)
_cell_length_b                        5.6123(3)
_cell_length_c                        7.8650(4)
_cell_angle_alpha                     90.0
_cell_angle_beta                      90.0
_cell_angle_gamma                     90.0
_cell_formula_units_Z                 2
_cell_volume                          244.96
_symmetry_cell_setting                monoclinic
_symmetry_space_group_name_H-M        P121/n1
_symmetry_Int_Tables_number           14

loop_
_symmetry_equiv_pos_site_id
_symmetry_equiv_pos_as_xyz
1 x,y,z
2 -x,-y,-z
3 x+1/2,-y+1/2,z+1/2
4 -x+1/2,y+1/2,-z+1/2

loop_
_atom_site_label
_atom_site_type_symbol
_atom_site_fract_x
_atom_site_fract_y
_atom_site_fract_z
_atom_site_U_iso_or_equiv
_atom_site_symmetry_multiplicity
_atom_site_Wyckoff_symbol
_atom_site_occupancy
La1 La 0.5029 0.54129 0.2512 0.0112 . . 0.75
Co2 Co 0.0 0.5 0.0 0.0404 . . 0.8928
Ir3 Ir 0.0 0.5 0.0 0.0126 . . 0.1072
O4 O 0.198 0.206 0.953 0.0026 . . 1.0
O5 O 0.276 0.734 0.962 0.0026 . . 1.0
O6 O 0.372 0.9761 0.2424 0.0026 . . 1.0
Ca7 Ca 0.5029 0.54129 0.2512 0.0112 . . 0.25
Ir8 Ir 0.5 0.0 0.0 0.0126 . . 0.8928
Co9 Co 0.5 0.0 0.0 0.0404 . . 0.1072

