data_00-073-0234
# Copyright 2025 International Centre for Diffraction Data. All rights reserved.

_audit_creation_date                  2025-07-06
_audit_creation_method                'Generated by PDF-5+ 2025 4.25.0.2'

_chemical_name_systematic             'Copper Vanadium Oxide'
_chemical_formula_moiety              'Cu2 V2 O7'
_chemical_formula_sum                 'Cu2 O7 V2'
_chemical_formula_weight              340.97

_cell_length_a                        20.67010(4)
_cell_length_b                        8.402190(15)
_cell_length_c                        6.443913(11)
_cell_angle_alpha                     90.0000
_cell_angle_beta                      90.0000
_cell_angle_gamma                     90.0000
_cell_formula_units_Z                 8
_cell_volume                          1119.14
_symmetry_cell_setting                orthorhombic
_symmetry_space_group_name_H-M        Fdd2
_symmetry_Int_Tables_number           43

loop_
_symmetry_equiv_pos_site_id
_symmetry_equiv_pos_as_xyz
1 x,y,z
2 -x,-y,z
3 -x+1/4,y+1/4,z+1/4
4 x+1/4,-y+1/4,z+1/4
5 x,y+1/2,z+1/2
6 -x,-y+1/2,z+1/2
7 -x+1/4,y+3/4,z+3/4
8 x+1/4,-y+3/4,z+3/4
9 x+1/2,y,z+1/2
10 -x+1/2,-y,z+1/2
11 -x+3/4,y+1/4,z+3/4
12 x+3/4,-y+1/4,z+3/4
13 x+1/2,y+1/2,z
14 -x+1/2,-y+1/2,z
15 -x+3/4,y+3/4,z+1/4
16 x+3/4,-y+3/4,z+1/4

loop_
_atom_site_label
_atom_site_type_symbol
_atom_site_fract_x
_atom_site_fract_y
_atom_site_fract_z
_atom_site_U_iso_or_equiv
_atom_site_symmetry_multiplicity
_atom_site_Wyckoff_symbol
_atom_site_occupancy
Cu1 Cu 0.16604 0.36449 0.75 0.01516 . . 1.0
V2 V 0.19955 0.40523 0.23257 0.009 . . 1.0
O3 O 0.24462 0.5615 0.2595 0.0113 . . 1.0
O4 O 0.14251 0.443 0.0285 0.0061 . . 1.0
O5 O 0.16086 0.3446 0.4509 0.0046 . . 1.0
O6 O 0.25 0.25 0.162 0.0153 . . 1.0

