data_00-068-0200
# Copyright 2025 International Centre for Diffraction Data. All rights reserved.

_audit_creation_date                  2025-07-06
_audit_creation_method                'Generated by PDF-5+ 2025 4.25.0.2'

_chemical_name_systematic             'Zirconium Oxide'
_chemical_name_common                 'zirconium oxide, nano'
_chemical_formula_moiety              'Zr O2'
_chemical_formula_sum                 'O2 Zr'
_chemical_formula_weight              123.22

_cell_length_a                        3.5947
_cell_length_b                        3.5947
_cell_length_c                        5.1845
_cell_angle_alpha                     90.0
_cell_angle_beta                      90.0
_cell_angle_gamma                     90.0
_cell_formula_units_Z                 2
_cell_volume                          66.99
_symmetry_cell_setting                tetragonal
_symmetry_space_group_name_H-M        P42/nmc
_symmetry_Int_Tables_number           137

loop_
_symmetry_equiv_pos_site_id
_symmetry_equiv_pos_as_xyz
1 x,y,z
2 -x,-y,-z
3 -x+1/2,y,z
4 x+1/2,-y,-z
5 x,-y+1/2,z
6 -x,y+1/2,-z
7 -x+1/2,-y+1/2,z
8 x+1/2,y+1/2,-z
9 y,x,z+1/2
10 -y,-x,-z+1/2
11 -y+1/2,x,z+1/2
12 y+1/2,-x,-z+1/2
13 y,-x+1/2,z+1/2
14 -y,x+1/2,-z+1/2
15 -y+1/2,-x+1/2,z+1/2
16 y+1/2,x+1/2,-z+1/2

loop_
_atom_site_label
_atom_site_type_symbol
_atom_site_fract_x
_atom_site_fract_y
_atom_site_fract_z
_atom_site_B_iso_or_equiv
_atom_site_symmetry_multiplicity
_atom_site_Wyckoff_symbol
_atom_site_occupancy
Zr1 Zr 0.75 0.25 0.75 1.3786 . . 1.0
O2 O 0.25 0.25 0.05819 7.30797 . . 1.0

