data_00-068-0059
# Copyright 2025 International Centre for Diffraction Data. All rights reserved.

_audit_creation_date                  2025-07-06
_audit_creation_method                'Generated by PDF-5+ 2025 4.25.0.2'

_chemical_name_systematic             'Yttrium Fluoride'
_chemical_formula_moiety              'Y F3'
_chemical_formula_structural          'Y F3'
_chemical_formula_sum                 'F3 Y'
_chemical_formula_weight              145.90

_cell_length_a                        6.38270(12)
_cell_length_b                        6.86727(12)
_cell_length_c                        4.39168(8)
_cell_angle_alpha                     90.0
_cell_angle_beta                      90.0
_cell_angle_gamma                     90.0
_cell_formula_units_Z                 4
_cell_volume                          193.28
_symmetry_cell_setting                orthorhombic
_symmetry_space_group_name_H-M        Pnma
_symmetry_Int_Tables_number           62

loop_
_symmetry_equiv_pos_site_id
_symmetry_equiv_pos_as_xyz
1 x,y,z
2 -x,-y,-z
3 x+1/2,-y+1/2,-z+1/2
4 -x+1/2,y+1/2,z+1/2
5 -x,y+1/2,-z
6 x,-y+1/2,z
7 -x+1/2,-y,z+1/2
8 x+1/2,y,-z+1/2

loop_
_atom_site_label
_atom_site_type_symbol
_atom_site_fract_x
_atom_site_fract_y
_atom_site_fract_z
_atom_site_U_iso_or_equiv
_atom_site_symmetry_multiplicity
_atom_site_Wyckoff_symbol
_atom_site_occupancy
Y1 Y 0.36773 0.25 0.44 0.00321 . . 0.832
Dy2 Dy 0.367 0.25 0.44001 0.00321 . . 0.168
F3 F 0.023 0.25 0.589 0.00922 . . 1.0
F4 F 0.164 0.063 0.122 0.0085 . . 1.0

loop_
_atom_site_aniso_label
_atom_site_aniso_U_11
_atom_site_aniso_U_12
_atom_site_aniso_U_13
_atom_site_aniso_U_22
_atom_site_aniso_U_23
_atom_site_aniso_U_33
Y1 0.0037 0.0 -8.6E-4 0.0011 0.0 0.0049
Dy2 0.0037 0.0 -0.0086 0.0011 0.0 0.0049
F3 0.0096 0.0 0.001 0.0088 0.0 0.0095
F4 0.0093 -1.0E-4 -4.0E-4 0.0061 -0.0015 0.0103

