data_00-059-0725
# Copyright 2025 International Centre for Diffraction Data. All rights reserved.

_audit_creation_date                  2025-07-04
_audit_creation_method                'Generated by PDF-5+ 2025 4.25.0.2'

_chemical_name_systematic             'Potassium Aluminum Titanium Phosphate'
_chemical_formula_moiety              'K2 Al Ti ( P O4 )3'
_chemical_formula_sum                 'Al K2 O12 P3 Ti'
_chemical_formula_weight              437.96

_cell_length_a                        9.70907(2)
_cell_length_b                        9.70907(2)
_cell_length_c                        9.70907(2)
_cell_angle_alpha                     90.0
_cell_angle_beta                      90.0
_cell_angle_gamma                     90.0
_cell_formula_units_Z                 4
_cell_volume                          915.24
_symmetry_cell_setting                cubic
_symmetry_space_group_name_H-M        P213
_symmetry_Int_Tables_number           198

loop_
_symmetry_equiv_pos_site_id
_symmetry_equiv_pos_as_xyz
1 x,y,z
2 z,x,y
3 y,z,x
4 x+1/2,-y+1/2,-z
5 z+1/2,-x+1/2,-y
6 y+1/2,-z+1/2,-x
7 -x,y+1/2,-z+1/2
8 -z,x+1/2,-y+1/2
9 -y,z+1/2,-x+1/2
10 -x+1/2,-y,z+1/2
11 -z+1/2,-x,y+1/2
12 -y+1/2,-z,x+1/2

loop_
_atom_site_label
_atom_site_type_symbol
_atom_site_fract_x
_atom_site_fract_y
_atom_site_fract_z
_atom_site_U_iso_or_equiv
_atom_site_symmetry_multiplicity
_atom_site_Wyckoff_symbol
_atom_site_occupancy
Ti1 Ti 0.5865 0.5865 0.5865 . . . 0.4764
Al2 Al 0.5865 0.5865 0.5865 . . . 0.5239
Ti3 Ti 0.6417 0.1417 0.3583 . . . 0.5215
Al4 Al 0.6417 0.1417 0.3583 . . . 0.4788
K5 K 0.4311 -0.0689 0.5689 . . . 1.0
K6 K 0.2913 0.2913 0.2913 . . . 1.0
P7 P 0.626 0.4563 0.273 . . . 1.0
O8 O 0.5791 0.3057 0.2663 . . . 1.0
O9 O 0.7608 0.4782 0.1945 . . . 1.0
O10 O 0.648 0.5011 0.4218 . . . 1.0
O11 O 0.5187 0.5462 0.2013 . . . 1.0

