data_00-060-0821
# Copyright 2025 International Centre for Diffraction Data. All rights reserved.

_audit_creation_date                  2025-07-04
_audit_creation_method                'Generated by PDF-5+ 2025 4.25.0.2'

_chemical_name_systematic             'Potassium Europium Molybdenum Oxide Phosphate'
_chemical_formula_moiety              'K2 Eu ( Mo O4 ) ( P O4 )'
_chemical_formula_sum                 'Eu K2 Mo O8 P'
_chemical_formula_weight              485.09

# Atomic parameters are cross-referenced from PDF entry 04-018-2032

_cell_length_a                        19.730(3)
_cell_length_b                        12.293(2)
_cell_length_c                        6.979(2)
_cell_angle_alpha                     90
_cell_angle_beta                      90
_cell_angle_gamma                     90
_cell_formula_units_Z                 8
_cell_volume                          1692.69
_symmetry_cell_setting                orthorhombic
_symmetry_space_group_name_H-M        Ibca
_symmetry_Int_Tables_number           73

loop_
_symmetry_equiv_pos_site_id
_symmetry_equiv_pos_as_xyz
1 x,y,z
2 -x,-y,-z
3 -x+1/2,-y,z+1/2
4 x+1/2,y,-z+1/2
5 -x,y+1/2,-z+1/2
6 x,-y+1/2,z+1/2
7 x+1/2,-y+1/2,-z
8 -x+1/2,y+1/2,z
9 x+1/2,y+1/2,z+1/2
10 -x+1/2,-y+1/2,-z+1/2
11 -x,-y+1/2,z
12 x,y+1/2,-z
13 -x+1/2,y,-z
14 x+1/2,-y,z
15 x,-y,-z+1/2
16 -x,y,z+1/2

loop_
_atom_site_label
_atom_site_type_symbol
_atom_site_fract_x
_atom_site_fract_y
_atom_site_fract_z
_atom_site_U_iso_or_equiv
_atom_site_symmetry_multiplicity
_atom_site_Wyckoff_symbol
_atom_site_occupancy
K1 K 0.5942 0.1717 0.2855 0.027 16 f 1.0
Eu2 Eu 0.75 0.0758 0.0 0.019 8 d 1.0
Mo3 Mo -0.0827 0.0 0.25 0.016 8 c 1.0
P4 P 0.25 0.1786 0.0 0.012 8 d 1.0
O5 O 0.3669 0.0303 0.458 0.008 16 f 1.0
O6 O 0.4661 0.1146 0.197 0.02 16 f 1.0
O7 O 0.1889 0.248 -0.021 0.02 16 f 1.0
O8 O 0.2404 0.0987 0.1697 0.008 16 f 1.0

