data_00-061-0029
# Copyright 2025 International Centre for Diffraction Data. All rights reserved.

_audit_creation_date                  2025-07-04
_audit_creation_method                'Generated by PDF-5+ 2025 4.25.0.2'

_chemical_name_systematic             'Indium Niobium Telluride'
_chemical_formula_moiety              'In0.54 Nb3 Te4'
_chemical_formula_sum                 'In0.54 Nb3 Te4'
_chemical_formula_weight              851.12

_cell_length_a                        10.6768(3)
_cell_length_b                        10.6768(3)
_cell_length_c                        3.65660(10)
_cell_angle_alpha                     90.0
_cell_angle_beta                      90.0
_cell_angle_gamma                     120.0
_cell_formula_units_Z                 2
_cell_volume                          360.99
_symmetry_cell_setting                hexagonal
_symmetry_space_group_name_H-M        P63/m
_symmetry_Int_Tables_number           176

loop_
_symmetry_equiv_pos_site_id
_symmetry_equiv_pos_as_xyz
1 x,y,z
2 -x,-y,-z
3 -y,x-y,z
4 y,-x+y,-z
5 -x+y,-x,z
6 x-y,x,-z
7 -x,-y,z+1/2
8 x,y,-z+1/2
9 y,-x+y,z+1/2
10 -y,x-y,-z+1/2
11 x-y,x,z+1/2
12 -x+y,-x,-z+1/2

loop_
_atom_site_label
_atom_site_type_symbol
_atom_site_fract_x
_atom_site_fract_y
_atom_site_fract_z
_atom_site_U_iso_or_equiv
_atom_site_symmetry_multiplicity
_atom_site_Wyckoff_symbol
_atom_site_occupancy
Nb1 Nb 0.4881 0.1024 0.25 0.0054 . . 1.0
Te2 Te 0.666667 0.333333 0.75 0.0051 . . 1.0
Te3 Te 0.3356 0.27194 0.25 0.0057 . . 1.0
In4 In 0.0 0.0 0.0 0.028 . . 0.2696
In5 In 0.0 0.0 0.25 0.029 . . 0.2696

