data_00-064-0853
# Copyright 2025 International Centre for Diffraction Data. All rights reserved.

_audit_creation_date                  2025-07-06
_audit_creation_method                'Generated by PDF-5+ 2025 4.25.0.2'

_chemical_name_systematic             'Calcium Lutetium Germanium Oxide'
_chemical_formula_moiety              'Ca Lu2 Ge4 O12'
_chemical_formula_sum                 'Ca Ge4 Lu2 O12'
_chemical_formula_weight              872.52

_cell_length_a                        9.91399(4)
_cell_length_b                        9.91399(4)
_cell_length_c                        5.030150(29)
_cell_angle_alpha                     90.0
_cell_angle_beta                      90.0
_cell_angle_gamma                     90.0
_cell_formula_units_Z                 2
_cell_volume                          494.40
_symmetry_cell_setting                tetragonal
_symmetry_space_group_name_H-M        P4/nbm
_symmetry_Int_Tables_number           125

loop_
_symmetry_equiv_pos_site_id
_symmetry_equiv_pos_as_xyz
1 x,y,z
2 -x,-y,-z
3 -x,y+1/2,z
4 x,-y+1/2,-z
5 x+1/2,-y,z
6 -x+1/2,y,-z
7 -x+1/2,-y+1/2,z
8 x+1/2,y+1/2,-z
9 y,x,-z
10 -y,-x,z
11 -y,x+1/2,-z
12 y,-x+1/2,z
13 y+1/2,-x,-z
14 -y+1/2,x,z
15 -y+1/2,-x+1/2,-z
16 y+1/2,x+1/2,z

loop_
_atom_site_label
_atom_site_type_symbol
_atom_site_fract_x
_atom_site_fract_y
_atom_site_fract_z
_atom_site_U_iso_or_equiv
_atom_site_symmetry_multiplicity
_atom_site_Wyckoff_symbol
_atom_site_occupancy
Ca1 Ca 0.0 0.0 0.5 0.0285 . . 0.5
Lu2 Lu 0.0 0.0 0.5 0.0285 . . 0.5
Lu3 Lu 0.25 0.25 0.5 0.0247 . . 1.0
Ge4 Ge 0.51942 0.25 0.0 0.0268 . . 1.0
O5 O 0.6264 0.3736 0.1577 0.0224 . . 1.0
O6 O 0.1734 0.0647 0.2576 0.0211 . . 1.0

