data_00-045-0136
# Copyright 2025 International Centre for Diffraction Data. All rights reserved.

_audit_creation_date                  2025-07-04
_audit_creation_method                'Generated by PDF-5+ 2025 4.25.0.2'

_chemical_name_systematic             'Sodium Calcium Magnesium Phosphate'
_chemical_formula_moiety              'Ca9 Mg Na ( P O4 )7'
_chemical_formula_sum                 'Ca9 Mg Na O28 P7'
_chemical_formula_weight              1072.79

# Atomic parameters are cross-referenced from PDF entry 04-017-5716

_cell_length_a                        10.3397(1)
_cell_length_b                        10.3397(1)
_cell_length_c                        37.029(1)
_cell_angle_alpha                     90
_cell_angle_beta                      90
_cell_angle_gamma                     120
_cell_formula_units_Z                 6
_cell_volume                          3428.38
_symmetry_cell_setting                hexagonal
_symmetry_space_group_name_H-M        R3c
_symmetry_Int_Tables_number           161

loop_
_symmetry_equiv_pos_site_id
_symmetry_equiv_pos_as_xyz
1 x,y,z
2 -y,x-y,z
3 -x+y,-x,z
4 -y,-x,z+1/2
5 x,x-y,z+1/2
6 -x+y,y,z+1/2
7 x+2/3,y+1/3,z+1/3
8 -y+2/3,x-y+1/3,z+1/3
9 -x+y+2/3,-x+1/3,z+1/3
10 -y+2/3,-x+1/3,z+5/6
11 x+2/3,x-y+1/3,z+5/6
12 -x+y+2/3,y+1/3,z+5/6
13 x+1/3,y+2/3,z+2/3
14 -y+1/3,x-y+2/3,z+2/3
15 -x+y+1/3,-x+2/3,z+2/3
16 -y+1/3,-x+2/3,z+1/6
17 x+1/3,x-y+2/3,z+1/6
18 -x+y+1/3,y+2/3,z+1/6

loop_
_atom_site_label
_atom_site_type_symbol
_atom_site_fract_x
_atom_site_fract_y
_atom_site_fract_z
_atom_site_B_iso_or_equiv
_atom_site_symmetry_multiplicity
_atom_site_Wyckoff_symbol
_atom_site_occupancy
Ca1 Ca 0.7282 0.8583 0.4311 0.5 18 b 1.0
Ca2 Ca 0.6164 0.8231 0.2297 0.5 18 b 1.0
Ca3 Ca 0.1219 0.2675 0.3236 0.7 18 b 1.0
Na4 Na 0.0 0.0 0.1854 3.4 6 a 1.0
Mg5 Mg 0.0 0.0 0.0 0.7 6 a 1.0
P6 P 0.0 0.0 0.265 0.9 6 a 1.0
P7 P 0.6867 0.861 0.1342 0.6 18 b 1.0
P8 P 0.655 0.848 0.0303 0.7 18 b 1.0
O9 O 0.0 0.0 0.3079 0.3 6 a 1.0
O10 O 0.007 0.861 0.2514 0.9 18 b 1.0
O11 O 0.748 0.925 0.1731 0.8 18 b 1.0
O12 O 0.757 0.77 0.1202 0.8 18 b 1.0
O13 O 0.723 0.004 0.111 0.6 18 b 1.0
O14 O 0.513 0.761 0.1326 0.3 18 b 1.0
O15 O 0.603 0.957 0.043 0.4 18 b 1.0
O16 O 0.575 0.695 0.0512 0.5 18 b 1.0
O17 O 0.825 0.922 0.0386 0.6 18 b 1.0
O18 O 0.623 0.819 0.99 0.7 18 b 1.0

