data_00-063-0102
# Copyright 2025 International Centre for Diffraction Data. All rights reserved.

_audit_creation_date                  2025-07-06
_audit_creation_method                'Generated by PDF-5+ 2025 4.25.0.2'

_chemical_name_systematic             'Aluminum Barium Silicon'
_chemical_formula_moiety              'Al5 Ba4 Si18'
_chemical_formula_sum                 'Al5 Ba4 Si18'
_chemical_formula_weight              1189.77

# Atomic parameters are cross-referenced from PDF entry 04-019-3401

_cell_length_a                        10.51480(10)
_cell_length_b                        10.51480(10)
_cell_length_c                        10.51480(10)
_cell_angle_alpha                     90
_cell_angle_beta                      90
_cell_angle_gamma                     90
_cell_formula_units_Z                 2
_cell_volume                          1162.53
_symmetry_cell_setting                cubic
_symmetry_space_group_name_H-M        Pm-3n
_symmetry_Int_Tables_number           223

loop_
_symmetry_equiv_pos_site_id
_symmetry_equiv_pos_as_xyz
1 x,y,z
2 -x,-y,-z
3 z,x,y
4 -z,-x,-y
5 y,z,x
6 -y,-z,-x
7 x,-y,-z
8 -x,y,z
9 z,-x,-y
10 -z,x,y
11 y,-z,-x
12 -y,z,x
13 -x,y,-z
14 x,-y,z
15 -z,x,-y
16 z,-x,y
17 -y,z,-x
18 y,-z,x
19 -x,-y,z
20 x,y,-z
21 -z,-x,y
22 z,x,-y
23 -y,-z,x
24 y,z,-x
25 x+1/2,z+1/2,y+1/2
26 -x+1/2,-z+1/2,-y+1/2
27 y+1/2,x+1/2,z+1/2
28 -y+1/2,-x+1/2,-z+1/2
29 z+1/2,y+1/2,x+1/2
30 -z+1/2,-y+1/2,-x+1/2
31 x+1/2,-z+1/2,-y+1/2
32 -x+1/2,z+1/2,y+1/2
33 y+1/2,-x+1/2,-z+1/2
34 -y+1/2,x+1/2,z+1/2
35 z+1/2,-y+1/2,-x+1/2
36 -z+1/2,y+1/2,x+1/2
37 -x+1/2,z+1/2,-y+1/2
38 x+1/2,-z+1/2,y+1/2
39 -y+1/2,x+1/2,-z+1/2
40 y+1/2,-x+1/2,z+1/2
41 -z+1/2,y+1/2,-x+1/2
42 z+1/2,-y+1/2,x+1/2
43 -x+1/2,-z+1/2,y+1/2
44 x+1/2,z+1/2,-y+1/2
45 -y+1/2,-x+1/2,z+1/2
46 y+1/2,x+1/2,-z+1/2
47 -z+1/2,-y+1/2,x+1/2
48 z+1/2,y+1/2,-x+1/2

loop_
_atom_site_label
_atom_site_type_symbol
_atom_site_fract_x
_atom_site_fract_y
_atom_site_fract_z
_atom_site_U_iso_or_equiv
_atom_site_symmetry_multiplicity
_atom_site_Wyckoff_symbol
_atom_site_occupancy
Ba1 Ba 0.0 0.0 0.0 0.0042 2 a 0.987
Ba2 Ba 0.25 0.5 0.0 0.00875 6 d 0.998
Si3 Si 0.0 0.303638 0.116016 0.00583 24 k 0.941
Al4 Al 0.0 0.303638 0.116016 0.00583 24 k 0.059
Si5 Si 0.184739 0.184739 0.184739 0.0057 16 i 0.836
Al6 Al 0.184739 0.184739 0.184739 0.0057 16 i 0.164
Al7 Al 0.25 0.0 0.5 0.00487 6 c 0.989

loop_
_atom_site_aniso_label
_atom_site_aniso_U_11
_atom_site_aniso_U_12
_atom_site_aniso_U_13
_atom_site_aniso_U_22
_atom_site_aniso_U_23
_atom_site_aniso_U_33
Ba2 0.00569 0.0 0.0 0.01028 0.0 0.01028
Si3 0.00651 0.0 0.0 0.00497 -6.1E-4 0.00601
Al4 0.00651 0.0 0.0 0.00497 -6.1E-4 0.00601
Al7 0.00484 0.0 0.0 0.00489 0.0 0.00489

