data_00-069-0030
# Copyright 2025 International Centre for Diffraction Data. All rights reserved.

_audit_creation_date                  2025-07-06
_audit_creation_method                'Generated by PDF-5+ 2025 4.25.0.2'

_chemical_name_systematic             'Calcium Aluminum Neodymium Titanium Zirconium Oxide'
_chemical_formula_moiety              'Ca0.85 Nd0.24 Zr0.925 Ti1.755 Al0.23 O7'
_chemical_formula_sum                 'Al0.23 Ca0.85 Nd0.24 O7 Ti1.755 Zr0.925'
_chemical_formula_weight              355.27

_cell_length_a                        12.4836(2)
_cell_length_b                        7.2770(1)
_cell_length_c                        11.3811(2)
_cell_angle_alpha                     90.0
_cell_angle_beta                      100.66
_cell_angle_gamma                     90.0
_cell_formula_units_Z                 8
_cell_volume                          1016.05
_symmetry_cell_setting                monoclinic
_symmetry_space_group_name_H-M        C12/c1
_symmetry_Int_Tables_number           15

loop_
_symmetry_equiv_pos_site_id
_symmetry_equiv_pos_as_xyz
1 x,y,z
2 -x,-y,-z
3 -x,y,-z+1/2
4 x,-y,z+1/2
5 x+1/2,y+1/2,z
6 -x+1/2,-y+1/2,-z
7 -x+1/2,y+1/2,-z+1/2
8 x+1/2,-y+1/2,z+1/2

loop_
_atom_site_label
_atom_site_type_symbol
_atom_site_fract_x
_atom_site_fract_y
_atom_site_fract_z
_atom_site_B_iso_or_equiv
_atom_site_symmetry_multiplicity
_atom_site_Wyckoff_symbol
_atom_site_occupancy
Ca1 Ca 0.3738 0.1274 0.4942 . . . 0.77
Nd2 Nd 0.3738 0.1274 0.4942 . . . 0.22
Zr3 Zr 0.3738 0.1274 0.4942 . . . 0.01
Ca4 Ca 0.1205 0.1232 0.9722 . . . 0.08
Nd5 Nd 0.1205 0.1232 0.9722 . . . 0.02
Zr6 Zr 0.1205 0.1232 0.9722 . . . 0.9
Ti7 Ti 0.2463 0.128 0.7485 . . . 1.0
Ti8 Ti 0.4713 0.0546 0.2702 . . . 0.27
Al9 Al 0.4713 0.0546 0.2702 . . . 0.23
Ti10 Ti 0.0 0.1178 0.25 . . . 0.97
Zr11 Zr 0.0 0.1178 0.25 . . . 0.03
O12 O 0.3092 0.1084 0.2791 . . . 1.0
O13 O 0.4682 0.1148 0.1074 . . . 1.0
O14 O 0.2017 0.0942 0.5775 . . . 1.0
O15 O 0.3856 0.1644 0.7113 . . . 1.0
O16 O 0.719 0.156 0.5903 . . . 1.0
O17 O 0.9903 0.138 0.4068 . . . 1.0
O18 O 0.0947 0.0509 0.7975 . . . 1.0

