data_00-050-0103
# Copyright 2025 International Centre for Diffraction Data. All rights reserved.

_audit_creation_date                  2025-07-04
_audit_creation_method                'Generated by PDF-5+ 2025 4.25.0.2'

_chemical_name_systematic             'Cobalt Manganese Tellurate'
_chemical_formula_moiety              'Mn2 Co Te O6'
_chemical_formula_sum                 'Co Mn2 O6 Te'
_chemical_formula_weight              392.40

# Atomic parameters are cross-referenced from PDF entry 04-021-4234

_cell_length_a                        8.7964(3)
_cell_length_b                        8.7964(3)
_cell_length_c                        10.6276(3)
_cell_angle_alpha                     90
_cell_angle_beta                      90
_cell_angle_gamma                     120
_cell_formula_units_Z                 6
_cell_volume                          712.16
_symmetry_cell_setting                hexagonal
_symmetry_space_group_name_H-M        R-3
_symmetry_Int_Tables_number           148

loop_
_symmetry_equiv_pos_site_id
_symmetry_equiv_pos_as_xyz
1 x,y,z
2 -x,-y,-z
3 -y,x-y,z
4 y,-x+y,-z
5 -x+y,-x,z
6 x-y,x,-z
7 x+2/3,y+1/3,z+1/3
8 -x+2/3,-y+1/3,-z+1/3
9 -y+2/3,x-y+1/3,z+1/3
10 y+2/3,-x+y+1/3,-z+1/3
11 -x+y+2/3,-x+1/3,z+1/3
12 x-y+2/3,x+1/3,-z+1/3
13 x+1/3,y+2/3,z+2/3
14 -x+1/3,-y+2/3,-z+2/3
15 -y+1/3,x-y+2/3,z+2/3
16 y+1/3,-x+y+2/3,-z+2/3
17 -x+y+1/3,-x+2/3,z+2/3
18 x-y+1/3,x+2/3,-z+2/3

loop_
_atom_site_label
_atom_site_type_symbol
_atom_site_fract_x
_atom_site_fract_y
_atom_site_fract_z
_atom_site_U_iso_or_equiv
_atom_site_symmetry_multiplicity
_atom_site_Wyckoff_symbol
_atom_site_occupancy
Mn1 Mn 0.0409 0.2655 0.2119 . 18 f 0.67
Co2 Co 0.0409 0.2655 0.2119 . 18 f 0.33
Te3 Te 0.0 0.0 0.5 . 3 b 1.0
Te4 Te 0.0 0.0 0.0 . 3 a 1.0
O5 O 0.0289 0.1999 0.3996 . 18 f 1.0
O6 O 0.1868 0.1601 0.1135 . 18 f 1.0

