data_00-070-0127
# Copyright 2025 International Centre for Diffraction Data. All rights reserved.

_audit_creation_date                  2025-07-06
_audit_creation_method                'Generated by PDF-5+ 2025 4.25.0.2'

_chemical_name_systematic             'Calcium Gadolinium Phosphate'
_chemical_formula_moiety              'Ca9 Gd ( P O4 )7'
_chemical_formula_sum                 'Ca9 Gd O28 P7'
_chemical_formula_weight              1182.74

_cell_length_a                        10.4397(3)
_cell_length_b                        10.4397(3)
_cell_length_c                        37.351(2)
_cell_angle_alpha                     90
_cell_angle_beta                      90
_cell_angle_gamma                     120
_cell_formula_units_Z                 6
_cell_volume                          3525.40
_symmetry_cell_setting                hexagonal
_symmetry_space_group_name_H-M        R3cH
_symmetry_Int_Tables_number           161

loop_
_symmetry_equiv_pos_site_id
_symmetry_equiv_pos_as_xyz
1 x,y,z
2 -y,x-y,z
3 -x+y,-x,z
4 -y,-x,z+1/2
5 x,x-y,z+1/2
6 -x+y,y,z+1/2
7 x+2/3,y+1/3,z+1/3
8 -y+2/3,x-y+1/3,z+1/3
9 -x+y+2/3,-x+1/3,z+1/3
10 -y+2/3,-x+1/3,z+5/6
11 x+2/3,x-y+1/3,z+5/6
12 -x+y+2/3,y+1/3,z+5/6
13 x+1/3,y+2/3,z+2/3
14 -y+1/3,x-y+2/3,z+2/3
15 -x+y+1/3,-x+2/3,z+2/3
16 -y+1/3,-x+2/3,z+1/6
17 x+1/3,x-y+2/3,z+1/6
18 -x+y+1/3,y+2/3,z+1/6

loop_
_atom_site_label
_atom_site_type_symbol
_atom_site_fract_x
_atom_site_fract_y
_atom_site_fract_z
_atom_site_U_iso_or_equiv
_atom_site_symmetry_multiplicity
_atom_site_Wyckoff_symbol
_atom_site_occupancy
Ca1 Ca 0.486 0.947 0.8317 0.0137 . . 0.867
Gd2 Gd 0.486 0.947 0.8317 0.0137 . . 0.133
Ca3 Ca 0.622 0.813 0.9656 0.0137 . . 0.885
Gd4 Gd 0.622 0.813 0.9656 0.0137 . . 0.115
Ca5 Ca 0.822 1.212 0.8933 0.0137 . . 0.927
Gd6 Gd 0.822 1.212 0.8933 0.0137 . . 0.073
Ca7 Ca 0.3333 0.6667 0.8992 0.0137 . . 1.0
P8 P 1.0 1.0 1.0022 0.013 . . 1.0
P9 P 0.679 0.842 0.8653 0.013 . . 1.0
P10 P 0.541 1.02 0.9328 0.013 . . 1.0
O11 O 0.72 0.831 0.9074 0.002 . . 1.0
O12 O 0.735 0.732 0.848 0.002 . . 1.0
O13 O 0.754 0.992 0.854 0.002 . . 1.0
O14 O 0.52 0.744 0.8586 0.002 . . 1.0
O15 O 0.426 0.841 0.942 0.002 . . 1.0
O16 O 0.447 1.103 0.945 0.002 . . 1.0
O17 O 0.678 1.057 0.951 0.002 . . 1.0
O18 O 0.53 1.033 0.8936 0.002 . . 1.0
O19 O 0.867 0.869 0.987 0.002 . . 1.0
O20 O 1.0 1.0 1.044 0.002 . . 1.0

