data_00-066-0137
# Copyright 2025 International Centre for Diffraction Data. All rights reserved.

_audit_creation_date                  2025-07-06
_audit_creation_method                'Generated by PDF-5+ 2025 4.25.0.2'

_chemical_name_systematic             'Dysprosium Yttrium Tantalum Oxide'
_chemical_formula_moiety              'Dy2 O7 Ta Y'
_chemical_formula_sum                 'Dy2 O7 Ta Y'
_chemical_formula_weight              706.85

_cell_length_a                        10.5316(2)
_cell_length_b                        7.4504(1)
_cell_length_c                        7.4840(1)
_cell_angle_alpha                     90.0
_cell_angle_beta                      90.0
_cell_angle_gamma                     90.0
_cell_formula_units_Z                 4
_cell_volume                          587.23
_symmetry_cell_setting                orthorhombic
_symmetry_space_group_name_H-M        C2221
_symmetry_Int_Tables_number           20

loop_
_symmetry_equiv_pos_site_id
_symmetry_equiv_pos_as_xyz
1 x,y,z
2 x,-y,-z
3 -x,-y,z+1/2
4 -x,y,-z+1/2
5 x+1/2,y+1/2,z
6 x+1/2,-y+1/2,-z
7 -x+1/2,-y+1/2,z+1/2
8 -x+1/2,y+1/2,-z+1/2

loop_
_atom_site_label
_atom_site_type_symbol
_atom_site_fract_x
_atom_site_fract_y
_atom_site_fract_z
_atom_site_U_iso_or_equiv
_atom_site_symmetry_multiplicity
_atom_site_Wyckoff_symbol
_atom_site_occupancy
Dy1 Dy 0.0 0.5009 0.25 0.02174 . . 0.667
Y2 Y 0.0 0.5009 0.25 0.02174 . . 0.333
Dy3 Dy 0.2382 0.2546 -8.0E-4 0.01585 . . 0.667
Y4 Y 0.2382 0.2546 -8.0E-4 0.01585 . . 0.333
Ta5 Ta 0.0 0.017 0.25 0.00402 . . 1.0
O6 O 0.1032 0.2763 0.2878 0.05224 . . 1.0
O7 O 0.1389 0.7996 0.2733 0.01213 . . 1.0
O8 O 0.1349 0.5 0.0 0.03745 . . 1.0
O9 O 0.145 0.5 0.5 0.01912 . . 1.0
O10 O 0.1098 0.0 0.0 0.0149 . . 1.0

