data_00-045-0138
# Copyright 2025 International Centre for Diffraction Data. All rights reserved.

_audit_creation_date                  2025-07-04
_audit_creation_method                'Generated by PDF-5+ 2025 4.25.0.2'

_chemical_name_systematic             'Potassium Calcium Phosphate'
_chemical_formula_moiety              'Ca10 K ( P O4 )7'
_chemical_formula_sum                 'Ca10 K O28 P7'
_chemical_formula_weight              1104.67

# Atomic parameters are cross-referenced from PDF entry 04-014-5920

_cell_length_a                        10.4630(4)
_cell_length_b                        10.4630(4)
_cell_length_c                        37.241(1)
_cell_angle_alpha                     90
_cell_angle_beta                      90
_cell_angle_gamma                     120
_cell_formula_units_Z                 6
_cell_volume                          3530.73
_symmetry_cell_setting                hexagonal
_symmetry_space_group_name_H-M        R3c
_symmetry_Int_Tables_number           161

loop_
_symmetry_equiv_pos_site_id
_symmetry_equiv_pos_as_xyz
1 x,y,z
2 -y,x-y,z
3 -x+y,-x,z
4 -y,-x,z+1/2
5 x,x-y,z+1/2
6 -x+y,y,z+1/2
7 x+2/3,y+1/3,z+1/3
8 -y+2/3,x-y+1/3,z+1/3
9 -x+y+2/3,-x+1/3,z+1/3
10 -y+2/3,-x+1/3,z+5/6
11 x+2/3,x-y+1/3,z+5/6
12 -x+y+2/3,y+1/3,z+5/6
13 x+1/3,y+2/3,z+2/3
14 -y+1/3,x-y+2/3,z+2/3
15 -x+y+1/3,-x+2/3,z+2/3
16 -y+1/3,-x+2/3,z+1/6
17 x+1/3,x-y+2/3,z+1/6
18 -x+y+1/3,y+2/3,z+1/6

loop_
_atom_site_label
_atom_site_type_symbol
_atom_site_fract_x
_atom_site_fract_y
_atom_site_fract_z
_atom_site_U_iso_or_equiv
_atom_site_symmetry_multiplicity
_atom_site_Wyckoff_symbol
_atom_site_occupancy
Ca1 Ca 0.4015 0.18804 0.02636 0.01213 18 b 1.0
Ca2 Ca 0.3924 0.19151 0.13207 0.00866 18 b 1.0
Ca3 Ca 0.17676 0.38629 0.10021 0.00898 18 b 1.0
Ca4 Ca 0.33333 0.66666 0.03389 0.01213 6 a 1.0
K5 K 0.0 0.0 0.0493 0.02577 6 a 1.0
P6 P 0.0 0.0 0.13478 0.00711 6 a 1.0
P7 P 0.13778 0.31542 0.00163 0.00828 18 b 1.0
P8 P 0.48417 0.47201 0.06596 0.00759 18 b 1.0
O9 O 0.0 0.0 0.1757 0.01151 6 a 1.0
O10 O 0.0076 0.1433 0.12131 0.0148 18 b 1.0
O11 O 0.0936 0.2842 0.04129 0.01723 18 b 1.0
O12 O 0.2174 0.2337 -0.01054 0.01782 18 b 1.0
O13 O -0.0055 0.2739 -0.01925 0.01192 18 b 1.0
O14 O 0.2394 0.4817 -0.00595 0.01548 18 b 1.0
O15 O 0.411 0.5634 0.07578 0.01333 18 b 1.0
O16 O 0.5071 0.47 0.02542 0.01171 18 b 1.0
O17 O 0.6356 0.5445 0.08409 0.01756 18 b 1.0
O18 O 0.3802 0.3124 0.07805 0.01307 18 b 1.0

loop_
_atom_site_aniso_label
_atom_site_aniso_U_11
_atom_site_aniso_U_12
_atom_site_aniso_U_13
_atom_site_aniso_U_22
_atom_site_aniso_U_23
_atom_site_aniso_U_33
Ca1 0.0152 0.0074 -0.0011 0.0114 -0.0027 0.0108
Ca2 0.009 0.0046 1.0E-4 0.0093 -9.0E-4 0.0077
Ca3 0.0087 0.0039 8.0E-4 0.0091 0.0019 0.0084
Ca4 0.0141 0.00705 0.0 0.0141 0.0 0.0082
K5 0.0234 0.0117 0.0 0.0234 0.0 0.0305
P6 0.0055 0.0028 0.0 0.0055 0.0 0.0104
P7 0.0091 0.0047 0.001 0.008 7.0E-4 0.0083
P8 0.0079 0.0043 -3.0E-4 0.008 -8.0E-4 0.0073
O9 0.0113 0.0057 0.0 0.0113 0.0 0.012
O10 0.015 0.0085 0.0061 0.0109 0.0057 0.0212
O11 0.0202 0.0121 0.0012 0.0222 1.0E-4 0.0113
O12 0.0244 0.021 -0.0019 0.0271 -0.0046 0.0128
O13 0.011 0.0056 -0.0017 0.0125 -0.0013 0.0119
O14 0.0077 0.0034 0.001 0.0123 0.004 0.0243
O15 0.0105 0.0056 0.0039 0.0098 -0.002 0.0204
O16 0.016 0.0077 -6.0E-4 0.0119 -0.002 0.0082
O17 0.012 0.007 -0.0033 0.0246 -3.0E-4 0.0132
O18 0.0177 0.0049 0.0019 0.0082 4.0E-4 0.0112

