data_00-062-0348
# Copyright 2025 International Centre for Diffraction Data. All rights reserved.

_audit_creation_date                  2025-07-06
_audit_creation_method                'Generated by PDF-5+ 2025 4.25.0.2'

_chemical_name_systematic             'Cerium Iron Arsenide Oxide'
_chemical_formula_moiety              'Ce Fe As O'
_chemical_formula_sum                 'As Ce Fe O'
_chemical_formula_weight              286.88

_cell_length_a                        4.00024(13)
_cell_length_b                        4.00024(13)
_cell_length_c                        8.64117(28)
_cell_angle_alpha                     90.0
_cell_angle_beta                      90.0
_cell_angle_gamma                     90.0
_cell_formula_units_Z                 2
_cell_volume                          138.28
_symmetry_cell_setting                tetragonal
_symmetry_space_group_name_H-M        P4/nmm
_symmetry_Int_Tables_number           129

loop_
_symmetry_equiv_pos_site_id
_symmetry_equiv_pos_as_xyz
1 x,y,z
2 -x,-y,-z
3 -x+1/2,y,z
4 x+1/2,-y,-z
5 x,-y+1/2,z
6 -x,y+1/2,-z
7 -x+1/2,-y+1/2,z
8 x+1/2,y+1/2,-z
9 y,x,z
10 -y,-x,-z
11 -y+1/2,x,z
12 y+1/2,-x,-z
13 y,-x+1/2,z
14 -y,x+1/2,-z
15 -y+1/2,-x+1/2,z
16 y+1/2,x+1/2,-z

loop_
_atom_site_label
_atom_site_type_symbol
_atom_site_fract_x
_atom_site_fract_y
_atom_site_fract_z
_atom_site_U_iso_or_equiv
_atom_site_symmetry_multiplicity
_atom_site_Wyckoff_symbol
_atom_site_occupancy
Ce1 Ce 0.25 0.25 0.1411 . 2 c 1.0
O2 O 0.75 0.25 0.0 . 2 a 1.0
Fe3 Fe 0.75 0.25 0.5 . 2 b 1.0
As4 As 0.25 0.25 0.6547 . 2 c 1.0

