# generated using pymatgen
data_Mn4O3
_symmetry_space_group_name_H-M   'P 1'
_cell_length_a   6.45251006
_cell_length_b   6.45251006
_cell_length_c   9.12402418
_cell_angle_alpha   90.00000000
_cell_angle_beta   90.00000000
_cell_angle_gamma   90.00000000
_symmetry_Int_Tables_number   1
_chemical_formula_structural   Mn4O3
_chemical_formula_sum   'Mn16 O12'
_cell_volume   379.87770694
_cell_formula_units_Z   4
loop_
 _symmetry_equiv_pos_site_id
 _symmetry_equiv_pos_as_xyz
  1  'x, y, z'
loop_
 _atom_site_type_symbol
 _atom_site_label
 _atom_site_symmetry_multiplicity
 _atom_site_fract_x
 _atom_site_fract_y
 _atom_site_fract_z
 _atom_site_occupancy
  O  O0  1  0.00000000  0.75000000  0.12500000  1
  O  O1  1  0.75000000  0.75000000  0.75000000  1
  O  O2  1  0.75000000  0.25000000  0.25000000  1
  O  O3  1  0.50000000  0.50000000  -0.00000000  1
  O  O4  1  0.25000000  0.25000000  0.25000000  1
  O  O5  1  0.25000000  0.75000000  0.75000000  1
  O  O6  1  0.00000000  0.50000000  0.50000000  1
  O  O7  1  0.00000000  0.00000000  0.50000000  1
  O  O8  1  0.00000000  0.25000000  0.87500000  1
  O  O9  1  0.50000000  0.25000000  0.62500000  1
  O  O10  1  0.50000000  0.75000000  0.37500000  1
  O  O11  1  0.50000000  0.00000000  -0.00000000  1
  Mn  Mn12  1  0.50000000  0.50742786  0.75369548  1
  Mn  Mn13  1  0.50000000  0.49257214  0.24630452  1
  Mn  Mn14  1  -0.00000000  0.50742786  0.74630452  1
  Mn  Mn15  1  0.75742786  0.75000000  0.50369548  1
  Mn  Mn16  1  0.74257214  0.25000000  0.00369548  1
  Mn  Mn17  1  -0.00000000  0.49257214  0.25369548  1
  Mn  Mn18  1  0.24257214  0.25000000  0.49630452  1
  Mn  Mn19  1  0.50000000  0.99257214  0.75369548  1
  Mn  Mn20  1  0.00000000  0.99257214  0.74630452  1
  Mn  Mn21  1  0.50000000  0.00742786  0.24630452  1
  Mn  Mn22  1  0.25742786  0.25000000  0.00369548  1
  Mn  Mn23  1  0.24257214  0.75000000  0.50369548  1
  Mn  Mn24  1  0.75742786  0.25000000  0.49630452  1
  Mn  Mn25  1  -0.00000000  0.00742786  0.25369548  1
  Mn  Mn26  1  0.25742786  0.75000000  0.99630452  1
  Mn  Mn27  1  0.74257214  0.75000000  0.99630452  1
