# generated using pymatgen
data_MnO
_symmetry_space_group_name_H-M   'P 1'
_cell_length_a   3.33761011
_cell_length_b   3.33761011
_cell_length_c   12.29522113
_cell_angle_alpha   90.00000000
_cell_angle_beta   90.00000000
_cell_angle_gamma   120.00000000
_symmetry_Int_Tables_number   1
_chemical_formula_structural   MnO
_chemical_formula_sum   'Mn4 O4'
_cell_volume   118.61460873
_cell_formula_units_Z   4
loop_
 _symmetry_equiv_pos_site_id
 _symmetry_equiv_pos_as_xyz
  1  'x, y, z'
loop_
 _atom_site_type_symbol
 _atom_site_label
 _atom_site_symmetry_multiplicity
 _atom_site_fract_x
 _atom_site_fract_y
 _atom_site_fract_z
 _atom_site_occupancy
  O  O0  1  -0.00000000  -0.00000000  0.00000000  1
  O  O1  1  -0.00000000  -0.00000000  0.50000000  1
  O  O2  1  0.33333333  0.66666667  0.25000000  1
  O  O3  1  0.66666667  0.33333333  0.75000000  1
  Mn  Mn4  1  0.33333333  0.66666667  0.39966305  1
  Mn  Mn5  1  0.66666667  0.33333333  0.89966305  1
  Mn  Mn6  1  0.66666667  0.33333333  0.60033695  1
  Mn  Mn7  1  0.33333333  0.66666667  0.10033695  1
