data_00-059-0324
# Copyright 2025 International Centre for Diffraction Data. All rights reserved.

_audit_creation_date                  2025-07-04
_audit_creation_method                'Generated by PDF-5+ 2025 4.25.0.2'

_chemical_name_systematic             'Cobalt Holmium Telluride'
_chemical_formula_moiety              'Co Ho6 Te2'
_chemical_formula_sum                 'Co Ho6 Te2'
_chemical_formula_weight              1303.71

_cell_length_a                        8.2328(2)
_cell_length_b                        8.2328(2)
_cell_length_c                        3.9352(1)
_cell_angle_alpha                     90.0
_cell_angle_beta                      90.0
_cell_angle_gamma                     120.0
_cell_formula_units_Z                 1
_cell_volume                          230.99
_symmetry_cell_setting                hexagonal
_symmetry_space_group_name_H-M        P-62m
_symmetry_Int_Tables_number           189

loop_
_symmetry_equiv_pos_site_id
_symmetry_equiv_pos_as_xyz
1 x,y,z
2 -y,x-y,z
3 -x+y,-x,z
4 x,y,-z
5 -y,x-y,-z
6 -x+y,-x,-z
7 y,x,z
8 -x,-x+y,z
9 x-y,-y,z
10 y,x,-z
11 -x,-x+y,-z
12 x-y,-y,-z

loop_
_atom_site_label
_atom_site_type_symbol
_atom_site_fract_x
_atom_site_fract_y
_atom_site_fract_z
_atom_site_U_iso_or_equiv
_atom_site_symmetry_multiplicity
_atom_site_Wyckoff_symbol
_atom_site_occupancy
Ho1 Ho 0.6001 0.0 0.5 . 3 g 1.0
Ho2 Ho 0.2376 0.0 0.0 . 3 f 1.0
Co3 Co 0.0 0.0 0.5 . 1 b 1.0
Te4 Te 0.33333 0.66666 0.0 . 2 c 1.0

