data_00-071-0280
# Copyright 2025 International Centre for Diffraction Data. All rights reserved.

_audit_creation_date                  2025-07-06
_audit_creation_method                'Generated by PDF-5+ 2025 4.25.0.2'

_chemical_name_systematic             'Manganese Ytterbium Oxide'
_chemical_name_common                 'manganese trioxide of ytterbium'
_chemical_formula_moiety              'Yb Mn O3'
_chemical_formula_sum                 'Mn O3 Yb'
_chemical_formula_weight              275.99

_cell_length_a                        6.05901(7)
_cell_length_b                        6.05901
_cell_length_c                        11.36769(15)
_cell_angle_alpha                     90.0
_cell_angle_beta                      90.0
_cell_angle_gamma                     120.0
_cell_formula_units_Z                 6
_cell_volume                          361.42
_symmetry_cell_setting                hexagonal
_symmetry_space_group_name_H-M        P63cm
_symmetry_Int_Tables_number           185

loop_
_symmetry_equiv_pos_site_id
_symmetry_equiv_pos_as_xyz
1 x,y,z
2 -y,x-y,z
3 -x+y,-x,z
4 y,x,z
5 -x,-x+y,z
6 x-y,-y,z
7 -x,-y,z+1/2
8 y,-x+y,z+1/2
9 x-y,x,z+1/2
10 -y,-x,z+1/2
11 x,x-y,z+1/2
12 -x+y,y,z+1/2

loop_
_atom_site_label
_atom_site_type_symbol
_atom_site_fract_x
_atom_site_fract_y
_atom_site_fract_z
_atom_site_U_iso_or_equiv
_atom_site_symmetry_multiplicity
_atom_site_Wyckoff_symbol
_atom_site_occupancy
Yb1 Yb 0.0 0.0 0.2734 0.0061 . . 1.0
Yb2 Yb 0.33333 -0.33333 0.2309 0.0049 . . 1.0
Mn3 Mn 0.3251 0.0 -0.0015 0.0039 . . 1.0
O4 O 0.319 0.0 0.1577 0.004 . . 1.0
O5 O 0.367 0.0 -0.1694 0.009 . . 1.0
O6 O 0.0 0.0 -0.0202 0.004 . . 1.0
O7 O 0.33333 -0.33333 0.019 0.004 . . 1.0

