data_00-051-1217
# Copyright 2025 International Centre for Diffraction Data. All rights reserved.

_audit_creation_date                  2025-07-04
_audit_creation_method                'Generated by PDF-5+ 2025 4.25.0.2'

_chemical_name_systematic             'Germanium Indium Lanthanum'
_chemical_formula_moiety              'Ge2 In La2'
_chemical_formula_sum                 'Ge2 In La2'
_chemical_formula_weight              537.89

# Atomic parameters are cross-referenced from PDF entry 04-012-9441

_cell_length_a                        7.664(2)
_cell_length_b                        7.664(2)
_cell_length_c                        4.450(1)
_cell_angle_alpha                     90
_cell_angle_beta                      90
_cell_angle_gamma                     90
_cell_formula_units_Z                 2
_cell_volume                          261.38
_symmetry_cell_setting                tetragonal
_symmetry_space_group_name_H-M        P4/mbm
_symmetry_Int_Tables_number           127

loop_
_symmetry_equiv_pos_site_id
_symmetry_equiv_pos_as_xyz
1 x,y,z
2 -x,-y,-z
3 -x,-y,z
4 x,y,-z
5 x+1/2,-y+1/2,z
6 -x+1/2,y+1/2,-z
7 -x+1/2,y+1/2,z
8 x+1/2,-y+1/2,-z
9 -y,x,z
10 y,-x,-z
11 y,-x,z
12 -y,x,-z
13 y+1/2,x+1/2,z
14 -y+1/2,-x+1/2,-z
15 -y+1/2,-x+1/2,z
16 y+1/2,x+1/2,-z

loop_
_atom_site_label
_atom_site_type_symbol
_atom_site_fract_x
_atom_site_fract_y
_atom_site_fract_z
_atom_site_B_iso_or_equiv
_atom_site_symmetry_multiplicity
_atom_site_Wyckoff_symbol
_atom_site_occupancy
La1 La 0.1803 0.6803 0.5 0.79666 4 h 1.0
Ge2 Ge 0.383 0.883 0.0 0.89333 4 g 1.0
In3 In 0.0 0.0 0.0 1.34332 2 a 1.0

loop_
_atom_site_aniso_label
_atom_site_aniso_B_11
_atom_site_aniso_B_12
_atom_site_aniso_B_13
_atom_site_aniso_B_22
_atom_site_aniso_B_23
_atom_site_aniso_B_33
La1 0.85 -0.27 0.0 0.85 0.0 0.69
Ge2 0.97 -0.2 0.0 0.97 0.0 0.74
In3 1.2 0.0 0.0 1.2 0.0 1.63

