data_00-054-0562
# Copyright 2025 International Centre for Diffraction Data. All rights reserved.

_audit_creation_date                  2025-07-04
_audit_creation_method                'Generated by PDF-5+ 2025 4.25.0.2'

_chemical_name_systematic             'Cerium Platinum Silicon'
_chemical_formula_moiety              'Ce Pt Si'
_chemical_formula_sum                 'Ce Pt Si'
_chemical_formula_weight              363.29
_chemical_melting_point               2013.0

# Atomic parameters are cross-referenced from PDF entry 04-002-8827

_cell_length_a                        4.198
_cell_length_b                        4.198
_cell_length_c                        14.49
_cell_angle_alpha                     90
_cell_angle_beta                      90
_cell_angle_gamma                     90
_cell_formula_units_Z                 4
_cell_volume                          255.36
_symmetry_cell_setting                tetragonal
_symmetry_space_group_name_H-M        I41md
_symmetry_Int_Tables_number           109

loop_
_symmetry_equiv_pos_site_id
_symmetry_equiv_pos_as_xyz
1 x,y,z
2 -x+1/2,-y+1/2,z+1/2
3 y+1/2,x,z+3/4
4 -y,-x+1/2,z+1/4
5 -x+1/2,y+1/2,z+1/2
6 x,-y,z
7 -y,x+1/2,z+1/4
8 y+1/2,-x,z+3/4
9 x+1/2,y+1/2,z+1/2
10 -x,-y,z
11 y,x+1/2,z+1/4
12 -y+1/2,-x,z+3/4
13 -x,y,z
14 x+1/2,-y+1/2,z+1/2
15 -y+1/2,x,z+3/4
16 y,-x+1/2,z+1/4

loop_
_atom_site_label
_atom_site_type_symbol
_atom_site_fract_x
_atom_site_fract_y
_atom_site_fract_z
_atom_site_U_iso_or_equiv
_atom_site_symmetry_multiplicity
_atom_site_Wyckoff_symbol
_atom_site_occupancy
Si1 Si 0.0 0.0 0.0 . 4 a 1.0
Pt2 Pt 0.0 0.0 0.166 . 4 a 1.0
Ce3 Ce 0.0 0.0 0.581 . 4 a 1.0

