data_00-062-0719
# Copyright 2025 International Centre for Diffraction Data. All rights reserved.

_audit_creation_date                  2025-07-06
_audit_creation_method                'Generated by PDF-5+ 2025 4.25.0.2'

_chemical_name_systematic             'Silver Neodymium Silicon Selenide'
_chemical_formula_moiety              'Ag Nd3 Si Se7'
_chemical_formula_sum                 'Ag Nd3 Se7 Si'
_chemical_formula_weight              1121.40

_cell_length_a                        10.6115(1)
_cell_length_b                        10.6115(1)
_cell_length_c                        5.9902(1)
_cell_angle_alpha                     90.0
_cell_angle_beta                      90.0
_cell_angle_gamma                     120.0
_cell_formula_units_Z                 2
_cell_volume                          584.15
_symmetry_cell_setting                hexagonal
_symmetry_space_group_name_H-M        P63
_symmetry_Int_Tables_number           173

loop_
_symmetry_equiv_pos_site_id
_symmetry_equiv_pos_as_xyz
1 x,y,z
2 -y,x-y,z
3 -x+y,-x,z
4 -x,-y,z+1/2
5 y,-x+y,z+1/2
6 x-y,x,z+1/2

loop_
_atom_site_label
_atom_site_type_symbol
_atom_site_fract_x
_atom_site_fract_y
_atom_site_fract_z
_atom_site_B_iso_or_equiv
_atom_site_symmetry_multiplicity
_atom_site_Wyckoff_symbol
_atom_site_occupancy
Nd1 Nd 0.6401 0.8723 0.949 1.05 . . 1.0
Ag2 Ag 0.0 0.0 0.034 3.1 . . 1.0
Si3 Si 0.333 0.667 0.386 2.2 . . 1.0
Se4 Se 0.333 0.667 0.731 0.5 . . 1.0
Se5 Se 0.9015 0.1697 0.965 1.22 . . 1.0
Se6 Se 0.5831 0.1043 0.706 1.1 . . 1.0

