data_00-063-0399
# Copyright 2025 International Centre for Diffraction Data. All rights reserved.

_audit_creation_date                  2025-07-06
_audit_creation_method                'Generated by PDF-5+ 2025 4.25.0.2'

_chemical_name_systematic             'Cobalt Germanium Holmium'
_chemical_name_common                 'holmium cobalt germanide'
_chemical_formula_moiety              'Co2 Ge3 Ho3'
_chemical_formula_sum                 'Co2 Ge3 Ho3'
_chemical_formula_weight              830.55

_cell_length_a                        4.1580(2)
_cell_length_b                        10.4071(2)
_cell_length_c                        13.8551(4)
_cell_angle_alpha                     90.0
_cell_angle_beta                      90.0
_cell_angle_gamma                     90.0
_cell_formula_units_Z                 4
_cell_volume                          599.55
_symmetry_cell_setting                orthorhombic
_symmetry_space_group_name_H-M        Cmcm
_symmetry_Int_Tables_number           63

loop_
_symmetry_equiv_pos_site_id
_symmetry_equiv_pos_as_xyz
1 x,y,z
2 -x,-y,-z
3 x,-y,-z
4 -x,y,z
5 x,y,-z+1/2
6 -x,-y,z+1/2
7 x,-y,z+1/2
8 -x,y,-z+1/2
9 x+1/2,y+1/2,z
10 -x+1/2,-y+1/2,-z
11 x+1/2,-y+1/2,-z
12 -x+1/2,y+1/2,z
13 x+1/2,y+1/2,-z+1/2
14 -x+1/2,-y+1/2,z+1/2
15 x+1/2,-y+1/2,z+1/2
16 -x+1/2,y+1/2,-z+1/2

loop_
_atom_site_label
_atom_site_type_symbol
_atom_site_fract_x
_atom_site_fract_y
_atom_site_fract_z
_atom_site_U_iso_or_equiv
_atom_site_symmetry_multiplicity
_atom_site_Wyckoff_symbol
_atom_site_occupancy
Ho1 Ho 0.0 0.4195 0.1105 . 8 f 1.0
Ho2 Ho 0.0 0.1397 0.25 . 4 c 1.0
Co3 Co 0.0 0.7196 0.0923 . 8 f 1.0
Ge4 Ge 0.0 0.842 0.25 . 4 c 1.0
Ge5 Ge 0.0 0.1222 0.0413 . 8 f 1.0

