data_00-050-1761
# Copyright 2025 International Centre for Diffraction Data. All rights reserved.

_audit_creation_date                  2025-07-04
_audit_creation_method                'Generated by PDF-5+ 2025 4.25.0.2'

_chemical_name_systematic             'Sodium Indium Phosphate'
_chemical_name_common                 '\a-Na3 In ( P O4 )2'
_chemical_formula_moiety              'Na3 In ( P O4 )2'
_chemical_formula_sum                 'In Na3 O8 P2'
_chemical_formula_weight              373.73

# Atomic parameters are cross-referenced from PDF entry 04-011-5480

_cell_length_a                        8.6335(1)
_cell_length_b                        5.4550(1)
_cell_length_c                        7.0482(1)
_cell_angle_alpha                     90
_cell_angle_beta                      90.295(1)
_cell_angle_gamma                     90
_cell_formula_units_Z                 2
_cell_volume                          331.94
_symmetry_cell_setting                monoclinic
_symmetry_space_group_name_H-M        P21/m
_symmetry_Int_Tables_number           11

loop_
_symmetry_equiv_pos_site_id
_symmetry_equiv_pos_as_xyz
1 x,y,z
2 -x,-y,-z
3 -x,y+1/2,-z
4 x,-y+1/2,z

loop_
_atom_site_label
_atom_site_type_symbol
_atom_site_fract_x
_atom_site_fract_y
_atom_site_fract_z
_atom_site_B_iso_or_equiv
_atom_site_symmetry_multiplicity
_atom_site_Wyckoff_symbol
_atom_site_occupancy
In1 In 0.25 0.25 0.0 0.39 2 e 1.0
Na2 Na 0.251 0.25 0.502 1.4 2 e 1.0
Na3 Na 0.559 0.25 0.286 1.29 2 e 1.0
Na4 Na 0.939 0.25 0.714 1.29 2 e 1.0
P5 P 0.596 0.25 0.778 0.8 2 e 1.0
P6 P 0.903 0.25 0.221 0.8 2 e 1.0
O7 O 0.498 0.25 0.963 0.48 2 e 1.0
O8 O 0.509 0.25 0.583 0.48 2 e 1.0
O9 O 0.301 0.506 0.222 0.48 4 f 1.0
O10 O 0.007 0.25 0.051 0.48 2 e 1.0
O11 O 0.209 0.531 0.785 0.48 4 f 1.0
O12 O 0.006 0.25 0.391 0.48 2 e 1.0

