data_00-059-0185
# Copyright 2025 International Centre for Diffraction Data. All rights reserved.

_audit_creation_date                  2025-07-04
_audit_creation_method                'Generated by PDF-5+ 2025 4.25.0.2'

_chemical_name_systematic             'Germanium Ruthenium Samarium'
_chemical_formula_moiety              'Sm3 Ru2 Ge2'
_chemical_formula_sum                 'Ge2 Ru2 Sm3'
_chemical_formula_weight              798.48

_cell_length_a                        5.6191(2)
_cell_length_b                        7.8009(3)
_cell_length_c                        13.5668(6)
_cell_angle_alpha                     90.0
_cell_angle_beta                      90.0
_cell_angle_gamma                     90.0
_cell_formula_units_Z                 4
_cell_volume                          594.69
_symmetry_cell_setting                orthorhombic
_symmetry_space_group_name_H-M        Pbcm
_symmetry_Int_Tables_number           57

loop_
_symmetry_equiv_pos_site_id
_symmetry_equiv_pos_as_xyz
1 x,y,z
2 -x,-y,-z
3 -x,-y,z+1/2
4 x,y,-z+1/2
5 x,-y+1/2,-z
6 -x,y+1/2,z
7 -x,y+1/2,-z+1/2
8 x,-y+1/2,z+1/2

loop_
_atom_site_label
_atom_site_type_symbol
_atom_site_fract_x
_atom_site_fract_y
_atom_site_fract_z
_atom_site_U_iso_or_equiv
_atom_site_symmetry_multiplicity
_atom_site_Wyckoff_symbol
_atom_site_occupancy
Sm1 Sm 0.1476 0.0974 0.0998 . 8 e 1.0
Sm2 Sm 0.663 0.2429 0.25 . 4 d 1.0
Ru3 Ru 0.352 0.4689 0.0907 . 8 e 1.0
Ge4 Ge 0.128 0.394 0.25 . 4 d 1.0
Ge5 Ge 0.614 0.25 0.0 . 4 c 1.0

