data_00-060-0761
# Copyright 2025 International Centre for Diffraction Data. All rights reserved.

_audit_creation_date                  2025-07-04
_audit_creation_method                'Generated by PDF-5+ 2025 4.25.0.2'

_chemical_name_systematic             'Barium Holmium Cobalt Oxide'
_chemical_formula_moiety              'Ba Ho Co4 O7'
_chemical_formula_sum                 'Ba Co4 Ho O7'
_chemical_formula_weight              649.98

_cell_length_a                        6.30584(3)
_cell_length_b                        6.30584(3)
_cell_length_c                        10.23209(7)
_cell_angle_alpha                     90.0
_cell_angle_beta                      90.0
_cell_angle_gamma                     120.0
_cell_formula_units_Z                 2
_cell_volume                          352.36
_symmetry_cell_setting                hexagonal
_symmetry_space_group_name_H-M        P31c
_symmetry_Int_Tables_number           159

loop_
_symmetry_equiv_pos_site_id
_symmetry_equiv_pos_as_xyz
1 x,y,z
2 -y,x-y,z
3 -x+y,-x,z
4 y,x,z+1/2
5 -x,-x+y,z+1/2
6 x-y,-y,z+1/2

loop_
_atom_site_label
_atom_site_type_symbol
_atom_site_fract_x
_atom_site_fract_y
_atom_site_fract_z
_atom_site_U_iso_or_equiv
_atom_site_symmetry_multiplicity
_atom_site_Wyckoff_symbol
_atom_site_occupancy
Ho1 Ho 0.66667 0.33333 0.87303 0.002 . . 1.0
Ba2 Ba 0.66667 0.33333 0.5 0.0085 . . 1.0
Co3 Co 0.0 0.0 0.4427 0.002 . . 1.0
Co4 Co 0.1765 0.8368 0.6867 0.002 . . 1.0
O5 O 0.4913 0.4837 0.7546 0.0097 . . 1.0
O6 O 0.0 0.0 0.2533 0.0097 . . 1.0
O7 O 0.1316 0.7912 0.5001 0.0097 . . 1.0

