data_00-055-0961
# Copyright 2025 International Centre for Diffraction Data. All rights reserved.

_audit_creation_date                  2025-07-04
_audit_creation_method                'Generated by PDF-5+ 2025 4.25.0.2'

_chemical_name_systematic             'Aluminum Cerium Oxide'
_chemical_formula_moiety              'Ce Al O3'
_chemical_formula_sum                 'Al Ce O3'
_chemical_formula_weight              215.09

# Atomic parameters are cross-referenced from PDF entry 04-013-4067

_cell_length_a                        5.32358(1)
_cell_length_b                        5.32358(1)
_cell_length_c                        7.58849(4)
_cell_angle_alpha                     90
_cell_angle_beta                      90
_cell_angle_gamma                     90
_cell_formula_units_Z                 4
_cell_volume                          215.06
_symmetry_cell_setting                tetragonal
_symmetry_space_group_name_H-M        I4/mcm
_symmetry_Int_Tables_number           140

loop_
_symmetry_equiv_pos_site_id
_symmetry_equiv_pos_as_xyz
1 x,y,z
2 -x,-y,-z
3 x,-y,z+1/2
4 -x,y,-z+1/2
5 x,y,-z
6 -x,-y,z
7 x,-y,-z+1/2
8 -x,y,z+1/2
9 -y,x,z
10 y,-x,-z
11 y,x,z+1/2
12 -y,-x,-z+1/2
13 -y,x,-z
14 y,-x,z
15 y,x,-z+1/2
16 -y,-x,z+1/2
17 x+1/2,y+1/2,z+1/2
18 -x+1/2,-y+1/2,-z+1/2
19 x+1/2,-y+1/2,z
20 -x+1/2,y+1/2,-z
21 x+1/2,y+1/2,-z+1/2
22 -x+1/2,-y+1/2,z+1/2
23 x+1/2,-y+1/2,-z
24 -x+1/2,y+1/2,z
25 -y+1/2,x+1/2,z+1/2
26 y+1/2,-x+1/2,-z+1/2
27 y+1/2,x+1/2,z
28 -y+1/2,-x+1/2,-z
29 -y+1/2,x+1/2,-z+1/2
30 y+1/2,-x+1/2,z+1/2
31 y+1/2,x+1/2,-z
32 -y+1/2,-x+1/2,z

loop_
_atom_site_label
_atom_site_type_symbol
_atom_site_fract_x
_atom_site_fract_y
_atom_site_fract_z
_atom_site_U_iso_or_equiv
_atom_site_symmetry_multiplicity
_atom_site_Wyckoff_symbol
_atom_site_occupancy
Al1 Al 0.0 0.0 0.0 0.0096 4 c 1.0
Ce2 Ce 0.5 0.0 0.25 0.0095 4 b 1.0
O3 O 0.0 0.0 0.25 0.0117 4 a 1.0
O4 O 0.28119 0.78119 0.0 0.0105 8 h 1.0

