data_00-067-0308
# Copyright 2025 International Centre for Diffraction Data. All rights reserved.

_audit_creation_date                  2025-07-06
_audit_creation_method                'Generated by PDF-5+ 2025 4.25.0.2'

_chemical_name_systematic             'Barium Calcium Zinc Gallium Oxide'
_chemical_formula_moiety              'Ca Ba Zn2 Ga2 O7'
_chemical_formula_sum                 'Ba Ca Ga2 O7 Zn2'
_chemical_formula_weight              559.60

_cell_length_a                        6.35189(5)
_cell_length_b                        6.35189(5)
_cell_length_c                        10.20247(9)
_cell_angle_alpha                     90.0
_cell_angle_beta                      90.0
_cell_angle_gamma                     120.0
_cell_formula_units_Z                 2
_cell_volume                          356.49
_symmetry_cell_setting                hexagonal
_symmetry_space_group_name_H-M        P63mc
_symmetry_Int_Tables_number           186

loop_
_symmetry_equiv_pos_site_id
_symmetry_equiv_pos_as_xyz
1 x,y,z
2 -y,x-y,z
3 -x+y,-x,z
4 -y,-x,z
5 x,x-y,z
6 -x+y,y,z
7 -x,-y,z+1/2
8 y,-x+y,z+1/2
9 x-y,x,z+1/2
10 y,x,z+1/2
11 -x,-x+y,z+1/2
12 x-y,-y,z+1/2

loop_
_atom_site_label
_atom_site_type_symbol
_atom_site_fract_x
_atom_site_fract_y
_atom_site_fract_z
_atom_site_B_iso_or_equiv
_atom_site_symmetry_multiplicity
_atom_site_Wyckoff_symbol
_atom_site_occupancy
Ca1 Ca 0.6666667 0.3333333 0.87167 0.811 . . 1.0
Ba2 Ba 0.6666667 0.3333333 0.5 1.936 . . 1.0
Ga3 Ga 0.0 0.0 0.44 1.271 . . 1.0
Zn4 Zn 0.17194 0.82806 0.68274 1.033 . . 1.0
O5 O 0.5053 0.4947 0.73944 2.5 . . 1.0
O6 O 0.0 0.0 0.25345 2.62 . . 1.0
O7 O 0.1589 0.8411 0.49131 2.92 . . 1.0

