data_00-060-0461
# Copyright 2025 International Centre for Diffraction Data. All rights reserved.

_audit_creation_date                  2025-07-04
_audit_creation_method                'Generated by PDF-5+ 2025 4.25.0.2'

_chemical_name_systematic             'Potassium Bismuth Tungstate'
_chemical_formula_moiety              'K Bi ( W O4 )2'
_chemical_formula_sum                 'Bi K O8 W2'
_chemical_formula_weight              743.75

_cell_length_a                        10.837(3)
_cell_length_b                        10.586(3)
_cell_length_c                        7.622(2)
_cell_angle_alpha                     90.0
_cell_angle_beta                      130.860(3)
_cell_angle_gamma                     90.0
_cell_formula_units_Z                 4
_cell_volume                          658.16
_symmetry_cell_setting                monoclinic
_symmetry_space_group_name_H-M        C12/c1
_symmetry_Int_Tables_number           15

loop_
_symmetry_equiv_pos_site_id
_symmetry_equiv_pos_as_xyz
1 x,y,z
2 -x,-y,-z
3 -x,y,-z+1/2
4 x,-y,z+1/2
5 x+1/2,y+1/2,z
6 -x+1/2,-y+1/2,-z
7 -x+1/2,y+1/2,-z+1/2
8 x+1/2,-y+1/2,z+1/2

loop_
_atom_site_label
_atom_site_type_symbol
_atom_site_fract_x
_atom_site_fract_y
_atom_site_fract_z
_atom_site_U_iso_or_equiv
_atom_site_symmetry_multiplicity
_atom_site_Wyckoff_symbol
_atom_site_occupancy
Bi1 Bi 0.0 0.22641 0.25 . 4 e 1.0
W2 W 0.69436 2.3E-4 0.73408 . 8 f 1.0
K3 K 0.0 0.2023 0.75 . 4 e 1.0
O4 O 0.7734 0.1568 0.8665 . 8 f 1.0
O5 O 0.6846 -0.0711 0.9369 . 8 f 1.0
O6 O 0.8677 -0.079 0.8131 . 8 f 1.0
O7 O 0.5235 -0.108 0.477 . 8 f 1.0

