data_00-060-0223
# Copyright 2025 International Centre for Diffraction Data. All rights reserved.

_audit_creation_date                  2025-07-04
_audit_creation_method                'Generated by PDF-5+ 2025 4.25.0.2'

_chemical_name_systematic             'Dysprosium Iron Silicon'
_chemical_formula_moiety              'Dy Fe4 Si2'
_chemical_formula_sum                 'Dy Fe4 Si2'
_chemical_formula_weight              442.05

_cell_length_a                        7.1779(1)
_cell_length_b                        7.1779(1)
_cell_length_c                        3.78540(8)
_cell_angle_alpha                     90.0
_cell_angle_beta                      90.0
_cell_angle_gamma                     90.0
_cell_formula_units_Z                 2
_cell_volume                          195.03
_symmetry_cell_setting                tetragonal
_symmetry_space_group_name_H-M        P42/mnm
_symmetry_Int_Tables_number           136

loop_
_symmetry_equiv_pos_site_id
_symmetry_equiv_pos_as_xyz
1 x,y,z
2 -x,-y,-z
3 -x,-y,z
4 x,y,-z
5 x+1/2,-y+1/2,z+1/2
6 -x+1/2,y+1/2,-z+1/2
7 -x+1/2,y+1/2,z+1/2
8 x+1/2,-y+1/2,-z+1/2
9 y,x,z
10 -y,-x,-z
11 -y,-x,z
12 y,x,-z
13 y+1/2,-x+1/2,z+1/2
14 -y+1/2,x+1/2,-z+1/2
15 -y+1/2,x+1/2,z+1/2
16 y+1/2,-x+1/2,-z+1/2

loop_
_atom_site_label
_atom_site_type_symbol
_atom_site_fract_x
_atom_site_fract_y
_atom_site_fract_z
_atom_site_B_iso_or_equiv
_atom_site_symmetry_multiplicity
_atom_site_Wyckoff_symbol
_atom_site_occupancy
Dy1 Dy 0.0 0.0 0.5 0.8 . . 1.0
Fe2 Fe 0.0887 0.3542 0.0 0.67 . . 1.0
Si3 Si 0.2197 0.7803 0.0 0.99 . . 1.0

