data_00-058-0324
# Copyright 2025 International Centre for Diffraction Data. All rights reserved.

_audit_creation_date                  2025-07-04
_audit_creation_method                'Generated by PDF-5+ 2025 4.25.0.2'

_chemical_name_systematic             'Holmium Silver Telluride'
_chemical_formula_moiety              'Ho Ag Te2'
_chemical_formula_sum                 'Ag Ho Te2'
_chemical_formula_weight              528.00

# Atomic parameters are cross-referenced from PDF entry 04-013-4854

_cell_length_a                        7.1033(3)
_cell_length_b                        7.1033(3)
_cell_length_c                        4.5713(3)
_cell_angle_alpha                     90
_cell_angle_beta                      90
_cell_angle_gamma                     90
_cell_formula_units_Z                 2
_cell_volume                          230.65
_symmetry_cell_setting                tetragonal
_symmetry_space_group_name_H-M        P-421m
_symmetry_Int_Tables_number           113

loop_
_symmetry_equiv_pos_site_id
_symmetry_equiv_pos_as_xyz
1 x,y,z
2 -x+1/2,y+1/2,-z
3 -x,-y,z
4 x+1/2,-y+1/2,-z
5 -y,x,-z
6 y+1/2,x+1/2,z
7 y,-x,-z
8 -y+1/2,-x+1/2,z

loop_
_atom_site_label
_atom_site_type_symbol
_atom_site_fract_x
_atom_site_fract_y
_atom_site_fract_z
_atom_site_B_iso_or_equiv
_atom_site_symmetry_multiplicity
_atom_site_Wyckoff_symbol
_atom_site_occupancy
Ho1 Ho 0.0 0.5 0.8021 1.16 2 c 1.0
Ag2 Ag 0.0 0.0 0.0 1.35 2 a 1.0
Te3 Te 0.7975 0.2975 0.2873 0.58 4 e 1.0

