data_00-063-0313
# Copyright 2025 International Centre for Diffraction Data. All rights reserved.

_audit_creation_date                  2025-07-06
_audit_creation_method                'Generated by PDF-5+ 2025 4.25.0.2'

_chemical_name_systematic             'Gadolinium Indium Nickel'
_chemical_name_common                 'gadolinium indide nickel'
_chemical_formula_moiety              'Gd11 In9 Ni4'
_chemical_formula_sum                 'Gd11 In9 Ni4'
_chemical_formula_weight              2997.89

_cell_length_a                        14.4583(7)
_cell_length_b                        21.727(1)
_cell_length_c                        3.6510(3)
_cell_angle_alpha                     90.0
_cell_angle_beta                      90.0
_cell_angle_gamma                     90.0
_cell_formula_units_Z                 2
_cell_volume                          1146.91
_symmetry_cell_setting                orthorhombic
_symmetry_space_group_name_H-M        Cmmm
_symmetry_Int_Tables_number           65

loop_
_symmetry_equiv_pos_site_id
_symmetry_equiv_pos_as_xyz
1 x,y,z
2 -x,-y,-z
3 -x,-y,z
4 x,y,-z
5 x,-y,-z
6 -x,y,z
7 -x,y,-z
8 x,-y,z
9 x+1/2,y+1/2,z
10 -x+1/2,-y+1/2,-z
11 -x+1/2,-y+1/2,z
12 x+1/2,y+1/2,-z
13 x+1/2,-y+1/2,-z
14 -x+1/2,y+1/2,z
15 -x+1/2,y+1/2,-z
16 x+1/2,-y+1/2,z

loop_
_atom_site_label
_atom_site_type_symbol
_atom_site_fract_x
_atom_site_fract_y
_atom_site_fract_z
_atom_site_U_iso_or_equiv
_atom_site_symmetry_multiplicity
_atom_site_Wyckoff_symbol
_atom_site_occupancy
Gd1 Gd 0.2416 0.1737 0.0 . 8 p 1.0
Gd2 Gd 0.0 0.161 0.0 . 4 i 1.0
Gd3 Gd 0.0 0.3742 0.0 . 4 i 1.0
Gd4 Gd 0.3142 0.0 0.0 . 4 g 1.0
Gd5 Gd 0.0 0.0 0.0 . 2 a 1.0
Ni6 Ni 0.358 0.098 0.5 . 8 q 1.0
In7 In 0.1039 0.2654 0.5 . 8 q 1.0
In8 In 0.1473 0.0701 0.5 . 8 q 1.0
In9 In 0.5 0.0 0.5 . 2 c 1.0

