data_00-052-1682
# Copyright 2025 International Centre for Diffraction Data. All rights reserved.

_audit_creation_date                  2025-07-04
_audit_creation_method                'Generated by PDF-5+ 2025 4.25.0.2'

_chemical_name_systematic             'Calcium Gallium Tantalum Oxide Silicate'
_chemical_formula_moiety              'Ca3 Ta Ga3 Si2 O14'
_chemical_formula_sum                 'Ca3 Ga3 O14 Si2 Ta'
_chemical_formula_weight              790.51

# Atomic parameters are cross-referenced from PDF entry 04-010-9907

_cell_length_a                        8.1081(4)
_cell_length_b                        8.1081(4)
_cell_length_c                        4.9850(4)
_cell_angle_alpha                     90
_cell_angle_beta                      90
_cell_angle_gamma                     120
_cell_formula_units_Z                 1
_cell_volume                          283.81
_symmetry_cell_setting                hexagonal
_symmetry_space_group_name_H-M        P321
_symmetry_Int_Tables_number           150

loop_
_symmetry_equiv_pos_site_id
_symmetry_equiv_pos_as_xyz
1 x,y,z
2 -y,x-y,z
3 -x+y,-x,z
4 y,x,-z
5 -x,-x+y,-z
6 x-y,-y,-z

loop_
_atom_site_label
_atom_site_type_symbol
_atom_site_fract_x
_atom_site_fract_y
_atom_site_fract_z
_atom_site_U_iso_or_equiv
_atom_site_symmetry_multiplicity
_atom_site_Wyckoff_symbol
_atom_site_occupancy
Ta1 Ta 0.0 0.0 0.0 0.01253 1 a 1.0
Ga2 Ga 0.74569 0.0 0.5 0.01402 3 f 1.0
Ca3 Ca 0.4241 0.0 0.0 0.01773 3 e 1.0
Si4 Si 0.66666 0.33333 0.4498 0.0134 2 d 1.0
O5 O 0.66666 0.33333 0.7695 0.02 2 d 1.0
O6 O 0.775 -0.1401 0.2367 0.0172 6 g 1.0
O7 O 0.6806 0.1572 0.3129 0.019 6 g 1.0

loop_
_atom_site_aniso_label
_atom_site_aniso_U_11
_atom_site_aniso_U_12
_atom_site_aniso_U_13
_atom_site_aniso_U_22
_atom_site_aniso_U_23
_atom_site_aniso_U_33
Ta1 0.0136 0.0068 0.0 0.0136 0.0 0.0104
Ga2 0.015 0.00755 -5.7E-4 0.0151 -0.00114 0.012
Ca3 0.0171 0.01275 -0.0011 0.0255 -0.0022 0.0134
Si4 0.0143 0.00715 0.0 0.0143 0.0 0.0116
O5 0.024 0.012 0.0 0.024 0.0 0.012
O6 0.017 0.0077 0.0034 0.018 -0.0015 0.0152
O7 0.025 0.013 -0.004 0.018 0.004 0.017

