data_00-072-0493
# Copyright 2025 International Centre for Diffraction Data. All rights reserved.

_audit_creation_date                  2025-07-06
_audit_creation_method                'Generated by PDF-5+ 2025 4.25.0.2'

_chemical_name_systematic             'Beryllium Gadolinium Germanium Oxide'
_chemical_formula_moiety              'Gd2 Be2 Ge O7'
_chemical_formula_sum                 'Be2 Gd2 Ge O7'
_chemical_formula_weight              517.15

_cell_length_a                        7.4935
_cell_length_b                        7.4935
_cell_length_c                        4.8420
_cell_angle_alpha                     90.0000
_cell_angle_beta                      90.0000
_cell_angle_gamma                     90.0000
_cell_formula_units_Z                 2
_cell_volume                          271.89
_symmetry_cell_setting                tetragonal
_symmetry_space_group_name_H-M        P-421m
_symmetry_Int_Tables_number           113

loop_
_symmetry_equiv_pos_site_id
_symmetry_equiv_pos_as_xyz
1 x,y,z
2 -x+1/2,y+1/2,-z
3 -x,-y,z
4 x+1/2,-y+1/2,-z
5 -y,x,-z
6 y+1/2,x+1/2,z
7 y,-x,-z
8 -y+1/2,-x+1/2,z

loop_
_atom_site_label
_atom_site_type_symbol
_atom_site_fract_x
_atom_site_fract_y
_atom_site_fract_z
_atom_site_U_iso_or_equiv
_atom_site_symmetry_multiplicity
_atom_site_Wyckoff_symbol
_atom_site_occupancy
O1 O 0.08 -0.168 -0.205 0.00685 . . 1.0
O2 O 0.139 0.639 0.273 0.00229 . . 1.0
Be3 Be 0.137 0.637 -0.05 0.00782 . . 1.0
Gd4 Gd 0.3409 0.8409 0.5033 0.01119 . . 1.0
O5 O 0.0 0.5 -0.179 0.00292 . . 1.0
Ge6 Ge 0.0 0.0 0.0 0.00229 . . 1.0

loop_
_atom_site_aniso_label
_atom_site_aniso_U_11
_atom_site_aniso_U_12
_atom_site_aniso_U_13
_atom_site_aniso_U_22
_atom_site_aniso_U_23
_atom_site_aniso_U_33
O2 0.00285 0.0 0.0 0.00285 0.0 0.00119
Be3 0.0033 4.5E-4 -0.00237 0.0033 -0.00237 0.01685
Gd4 0.01117 0.00573 -0.0084 0.01117 -0.0084 0.01123
O5 0.00379 9.4E-4 0.0 0.00379 0.0 0.0012
Ge6 0.00284 0.0 0.0 0.00284 0.0 0.00119

