data_00-061-0127
# Copyright 2025 International Centre for Diffraction Data. All rights reserved.

_audit_creation_date                  2025-07-04
_audit_creation_method                'Generated by PDF-5+ 2025 4.25.0.2'

_chemical_name_systematic             'Cobalt Gadolinium Germanium'
_chemical_formula_moiety              'Co Gd3 Ge2'
_chemical_formula_sum                 'Co Gd3 Ge2'
_chemical_formula_weight              675.94

_cell_length_a                        11.5844(5)
_cell_length_b                        4.1905(2)
_cell_length_c                        11.2087(5)
_cell_angle_alpha                     90.0
_cell_angle_beta                      90.0
_cell_angle_gamma                     90.0
_cell_formula_units_Z                 4
_cell_volume                          544.12
_symmetry_cell_setting                orthorhombic
_symmetry_space_group_name_H-M        Pnma
_symmetry_Int_Tables_number           62

loop_
_symmetry_equiv_pos_site_id
_symmetry_equiv_pos_as_xyz
1 x,y,z
2 -x,-y,-z
3 x+1/2,-y+1/2,-z+1/2
4 -x+1/2,y+1/2,z+1/2
5 -x,y+1/2,-z
6 x,-y+1/2,z
7 -x+1/2,-y,z+1/2
8 x+1/2,y,-z+1/2

loop_
_atom_site_label
_atom_site_type_symbol
_atom_site_fract_x
_atom_site_fract_y
_atom_site_fract_z
_atom_site_U_iso_or_equiv
_atom_site_symmetry_multiplicity
_atom_site_Wyckoff_symbol
_atom_site_occupancy
Gd1 Gd 0.3784 0.25 0.4399 . 4 c 1.0
Gd2 Gd 0.0522 0.25 0.373 . 4 c 1.0
Gd3 Gd 0.2207 0.25 0.6972 . 4 c 1.0
Co4 Co 0.136 0.25 0.126 . 4 c 1.0
Ge5 Ge 0.481 0.25 0.689 . 4 c 1.0
Ge6 Ge 0.304 0.25 -0.002 . 4 c 1.0

