data_00-062-0723
# Copyright 2025 International Centre for Diffraction Data. All rights reserved.

_audit_creation_date                  2025-07-06
_audit_creation_method                'Generated by PDF-5+ 2025 4.25.0.2'

_chemical_name_systematic             'Calcium Copper Iron Oxide Selenide'
_chemical_formula_moiety              'Ca2 Cu Fe O3 Se'
_chemical_formula_sum                 'Ca2 Cu Fe O3 Se'
_chemical_formula_weight              326.50

# Atomic parameters are cross-referenced from PDF entry 04-018-2075

_cell_length_a                        3.8596(1)
_cell_length_b                        3.8596(1)
_cell_length_c                        15.2985(2)
_cell_angle_alpha                     90
_cell_angle_beta                      90
_cell_angle_gamma                     90
_cell_formula_units_Z                 2
_cell_volume                          227.89
_symmetry_cell_setting                tetragonal
_symmetry_space_group_name_H-M        P4/nmm
_symmetry_Int_Tables_number           129

loop_
_symmetry_equiv_pos_site_id
_symmetry_equiv_pos_as_xyz
1 x,y,z
2 -x,-y,-z
3 -x+1/2,y,z
4 x+1/2,-y,-z
5 x,-y+1/2,z
6 -x,y+1/2,-z
7 -x+1/2,-y+1/2,z
8 x+1/2,y+1/2,-z
9 y,x,z
10 -y,-x,-z
11 -y+1/2,x,z
12 y+1/2,-x,-z
13 y,-x+1/2,z
14 -y,x+1/2,-z
15 -y+1/2,-x+1/2,z
16 y+1/2,x+1/2,-z

loop_
_atom_site_label
_atom_site_type_symbol
_atom_site_fract_x
_atom_site_fract_y
_atom_site_fract_z
_atom_site_B_iso_or_equiv
_atom_site_symmetry_multiplicity
_atom_site_Wyckoff_symbol
_atom_site_occupancy
Ca1 Ca 0.75 0.75 0.1981 0.66 2 c 1.0
Ca2 Ca 0.75 0.75 0.4163 1.28 2 c 1.0
Fe3 Fe 0.25 0.25 0.3167 0.71 2 c 1.0
Cu4 Cu 0.25 0.75 0.0 1.48 2 a 1.0
Se5 Se 0.25 0.25 0.1044 0.92 2 c 1.0
O6 O 0.25 0.75 0.2961 1.1 4 f 1.0
O7 O 0.25 0.25 0.4406 1.1 2 c 1.0

