data_00-058-0204
# Copyright 2025 International Centre for Diffraction Data. All rights reserved.

_audit_creation_date                  2025-07-04
_audit_creation_method                'Generated by PDF-5+ 2025 4.25.0.2'

_chemical_name_systematic             'Indium Palladium'
_chemical_formula_moiety              'In7 Pd3'
_chemical_formula_sum                 'In7 Pd3'
_chemical_formula_weight              1122.99
_chemical_melting_point               1080.0

# Atomic parameters are cross-referenced from PDF entry 04-010-6205

_cell_length_a                        9.4359(4)
_cell_length_b                        9.4359(4)
_cell_length_c                        9.4359(4)
_cell_angle_alpha                     90
_cell_angle_beta                      90
_cell_angle_gamma                     90
_cell_formula_units_Z                 4
_cell_volume                          840.14
_symmetry_cell_setting                cubic
_symmetry_space_group_name_H-M        Im-3m
_symmetry_Int_Tables_number           229

loop_
_symmetry_equiv_pos_site_id
_symmetry_equiv_pos_as_xyz
1 x,y,z
2 -x,-y,-z
3 z,x,y
4 -z,-x,-y
5 y,z,x
6 -y,-z,-x
7 x,z,y
8 -x,-z,-y
9 y,x,z
10 -y,-x,-z
11 z,y,x
12 -z,-y,-x
13 x,-y,-z
14 -x,y,z
15 z,-x,-y
16 -z,x,y
17 y,-z,-x
18 -y,z,x
19 x,-z,-y
20 -x,z,y
21 y,-x,-z
22 -y,x,z
23 z,-y,-x
24 -z,y,x
25 -x,y,-z
26 x,-y,z
27 -z,x,-y
28 z,-x,y
29 -y,z,-x
30 y,-z,x
31 -x,z,-y
32 x,-z,y
33 -y,x,-z
34 y,-x,z
35 -z,y,-x
36 z,-y,x
37 -x,-y,z
38 x,y,-z
39 -z,-x,y
40 z,x,-y
41 -y,-z,x
42 y,z,-x
43 -x,-z,y
44 x,z,-y
45 -y,-x,z
46 y,x,-z
47 -z,-y,x
48 z,y,-x
49 x+1/2,y+1/2,z+1/2
50 -x+1/2,-y+1/2,-z+1/2
51 z+1/2,x+1/2,y+1/2
52 -z+1/2,-x+1/2,-y+1/2
53 y+1/2,z+1/2,x+1/2
54 -y+1/2,-z+1/2,-x+1/2
55 x+1/2,z+1/2,y+1/2
56 -x+1/2,-z+1/2,-y+1/2
57 y+1/2,x+1/2,z+1/2
58 -y+1/2,-x+1/2,-z+1/2
59 z+1/2,y+1/2,x+1/2
60 -z+1/2,-y+1/2,-x+1/2
61 x+1/2,-y+1/2,-z+1/2
62 -x+1/2,y+1/2,z+1/2
63 z+1/2,-x+1/2,-y+1/2
64 -z+1/2,x+1/2,y+1/2
65 y+1/2,-z+1/2,-x+1/2
66 -y+1/2,z+1/2,x+1/2
67 x+1/2,-z+1/2,-y+1/2
68 -x+1/2,z+1/2,y+1/2
69 y+1/2,-x+1/2,-z+1/2
70 -y+1/2,x+1/2,z+1/2
71 z+1/2,-y+1/2,-x+1/2
72 -z+1/2,y+1/2,x+1/2
73 -x+1/2,y+1/2,-z+1/2
74 x+1/2,-y+1/2,z+1/2
75 -z+1/2,x+1/2,-y+1/2
76 z+1/2,-x+1/2,y+1/2
77 -y+1/2,z+1/2,-x+1/2
78 y+1/2,-z+1/2,x+1/2
79 -x+1/2,z+1/2,-y+1/2
80 x+1/2,-z+1/2,y+1/2
81 -y+1/2,x+1/2,-z+1/2
82 y+1/2,-x+1/2,z+1/2
83 -z+1/2,y+1/2,-x+1/2
84 z+1/2,-y+1/2,x+1/2
85 -x+1/2,-y+1/2,z+1/2
86 x+1/2,y+1/2,-z+1/2
87 -z+1/2,-x+1/2,y+1/2
88 z+1/2,x+1/2,-y+1/2
89 -y+1/2,-z+1/2,x+1/2
90 y+1/2,z+1/2,-x+1/2
91 -x+1/2,-z+1/2,y+1/2
92 x+1/2,z+1/2,-y+1/2
93 -y+1/2,-x+1/2,z+1/2
94 y+1/2,x+1/2,-z+1/2
95 -z+1/2,-y+1/2,x+1/2
96 z+1/2,y+1/2,-x+1/2

loop_
_atom_site_label
_atom_site_type_symbol
_atom_site_fract_x
_atom_site_fract_y
_atom_site_fract_z
_atom_site_U_iso_or_equiv
_atom_site_symmetry_multiplicity
_atom_site_Wyckoff_symbol
_atom_site_occupancy
Pd1 Pd 0.3481 0.0 0.0 0.012 12 e 1.0
In2 In 0.25 0.0 0.5 0.009 12 d 1.0
In3 In 0.1622 0.1622 0.1622 0.006 16 f 1.0

