data_00-059-0211
# Copyright 2025 International Centre for Diffraction Data. All rights reserved.

_audit_creation_date                  2025-07-04
_audit_creation_method                'Generated by PDF-5+ 2025 4.25.0.2'

_chemical_name_systematic             'Indium Lutetium Palladium'
_chemical_formula_moiety              'In4 Lu5 Pd2'
_chemical_formula_sum                 'In4 Lu5 Pd2'
_chemical_formula_weight              1546.95

_cell_length_a                        17.8310(3)
_cell_length_b                        7.88910(2)
_cell_length_c                        3.55367(1)
_cell_angle_alpha                     90.0
_cell_angle_beta                      90.0
_cell_angle_gamma                     90.0
_cell_formula_units_Z                 2
_cell_volume                          499.90
_symmetry_cell_setting                orthorhombic
_symmetry_space_group_name_H-M        Pbam
_symmetry_Int_Tables_number           55

loop_
_symmetry_equiv_pos_site_id
_symmetry_equiv_pos_as_xyz
1 x,y,z
2 -x,-y,-z
3 -x,-y,z
4 x,y,-z
5 x+1/2,-y+1/2,-z
6 -x+1/2,y+1/2,z
7 -x+1/2,y+1/2,-z
8 x+1/2,-y+1/2,z

loop_
_atom_site_label
_atom_site_type_symbol
_atom_site_fract_x
_atom_site_fract_y
_atom_site_fract_z
_atom_site_B_iso_or_equiv
_atom_site_symmetry_multiplicity
_atom_site_Wyckoff_symbol
_atom_site_occupancy
Lu1 Lu 0.0 0.0 0.0 0.61 . . 1.0
Lu2 Lu 0.2176 0.2399 0.0 0.53 . . 1.0
Lu3 Lu 0.4182 0.1215 0.0 0.56 . . 1.0
Pd4 Pd 0.3033 0.0266 0.5 0.65 . . 1.0
In5 In 0.5665 0.2092 0.5 0.79 . . 1.0
In6 In 0.8515 0.0777 0.5 0.73 . . 1.0

