data_00-054-0567
# Copyright 2025 International Centre for Diffraction Data. All rights reserved.

_audit_creation_date                  2025-07-04
_audit_creation_method                'Generated by PDF-5+ 2025 4.25.0.2'

_chemical_name_systematic             'Iron Silicon Yttrium'
_chemical_formula_moiety              'Y2 Fe3 Si5'
_chemical_formula_sum                 'Fe3 Si5 Y2'
_chemical_formula_weight              485.78

# Atomic parameters are cross-referenced from PDF entry 04-006-2721

_cell_length_a                        10.43
_cell_length_b                        10.43
_cell_length_c                        5.47
_cell_angle_alpha                     90
_cell_angle_beta                      90
_cell_angle_gamma                     90
_cell_formula_units_Z                 4
_cell_volume                          595.05
_symmetry_cell_setting                tetragonal
_symmetry_space_group_name_H-M        P4/mnc
_symmetry_Int_Tables_number           128

loop_
_symmetry_equiv_pos_site_id
_symmetry_equiv_pos_as_xyz
1 x,y,z
2 -x,-y,-z
3 -x,-y,z
4 x,y,-z
5 x+1/2,-y+1/2,z+1/2
6 -x+1/2,y+1/2,-z+1/2
7 -x+1/2,y+1/2,z+1/2
8 x+1/2,-y+1/2,-z+1/2
9 -y,x,z
10 y,-x,-z
11 y,-x,z
12 -y,x,-z
13 y+1/2,x+1/2,z+1/2
14 -y+1/2,-x+1/2,-z+1/2
15 -y+1/2,-x+1/2,z+1/2
16 y+1/2,x+1/2,-z+1/2

loop_
_atom_site_label
_atom_site_type_symbol
_atom_site_fract_x
_atom_site_fract_y
_atom_site_fract_z
_atom_site_U_iso_or_equiv
_atom_site_symmetry_multiplicity
_atom_site_Wyckoff_symbol
_atom_site_occupancy
Si1 Si 0.0148 0.3091 0.0 . 8 h 1.0
Fe2 Fe 0.1599 0.1221 0.0 . 8 h 1.0
Y3 Y 0.2606 0.4296 0.0 . 8 h 1.0
Si4 Si 0.1839 0.6839 0.25 . 8 g 1.0
Si5 Si 0.0 0.0 0.257 . 4 e 1.0
Fe6 Fe 0.0 0.5 0.25 . 4 d 1.0

