data_00-062-0297
# Copyright 2025 International Centre for Diffraction Data. All rights reserved.

_audit_creation_date                  2025-07-06
_audit_creation_method                'Generated by PDF-5+ 2025 4.25.0.2'

_chemical_name_systematic             'Strontium Yttrium Niobium Oxide'
_chemical_formula_moiety              'Sr2 Y Nb O6'
_chemical_formula_sum                 'Nb O6 Sr2 Y'
_chemical_formula_weight              453.05

_cell_length_a                        5.80787(8)
_cell_length_b                        5.85753(5)
_cell_length_c                        8.23820(14)
_cell_angle_alpha                     90.0
_cell_angle_beta                      90.1579(11)
_cell_angle_gamma                     90.0
_cell_formula_units_Z                 2
_cell_volume                          280.26
_symmetry_cell_setting                monoclinic
_symmetry_space_group_name_H-M        P121/n1
_symmetry_Int_Tables_number           14

loop_
_symmetry_equiv_pos_site_id
_symmetry_equiv_pos_as_xyz
1 x,y,z
2 -x,-y,-z
3 x+1/2,-y+1/2,z+1/2
4 -x+1/2,y+1/2,-z+1/2

loop_
_atom_site_label
_atom_site_type_symbol
_atom_site_fract_x
_atom_site_fract_y
_atom_site_fract_z
_atom_site_U_iso_or_equiv
_atom_site_symmetry_multiplicity
_atom_site_Wyckoff_symbol
_atom_site_occupancy
Y1 Y 0.0 0.0 0.0 0.0102 . . 1.0
Nb2 Nb 0.0 0.0 0.5 0.0095 . . 1.0
Sr3 Sr 0.0073 0.53247 0.7499 0.01389 . . 1.0
O4 O 0.2326 0.2954 -0.0281 0.0093 . . 1.0
O5 O 0.4287 0.5246 0.2356 0.0093 . . 1.0
O6 O 0.2011 0.2688 0.5495 0.0093 . . 1.0

