data_00-051-0137
# Copyright 2025 International Centre for Diffraction Data. All rights reserved.

_audit_creation_date                  2025-07-04
_audit_creation_method                'Generated by PDF-5+ 2025 4.25.0.2'

_chemical_name_systematic             'Barium Gallium Niobium Oxide Silicate'
_chemical_formula_moiety              'Ba3 Nb Ga3 Si2 O14'
_chemical_formula_sum                 'Ba3 Ga3 Nb O14 Si2'
_chemical_formula_weight              994.21

# Atomic parameters are cross-referenced from PDF entry 04-020-9089

_cell_length_a                        8.505
_cell_length_b                        8.505
_cell_length_c                        5.194
_cell_angle_alpha                     90
_cell_angle_beta                      90
_cell_angle_gamma                     120
_cell_formula_units_Z                 1
_cell_volume                          325.37
_symmetry_cell_setting                hexagonal
_symmetry_space_group_name_H-M        P321
_symmetry_Int_Tables_number           150

loop_
_symmetry_equiv_pos_site_id
_symmetry_equiv_pos_as_xyz
1 x,y,z
2 -y,x-y,z
3 -x+y,-x,z
4 y,x,-z
5 -x,-x+y,-z
6 x-y,-y,-z

loop_
_atom_site_label
_atom_site_type_symbol
_atom_site_fract_x
_atom_site_fract_y
_atom_site_fract_z
_atom_site_U_iso_or_equiv
_atom_site_symmetry_multiplicity
_atom_site_Wyckoff_symbol
_atom_site_occupancy
O1 O 0.122 0.212 0.217 . 6 g 1.0
O2 O 0.467 0.2 0.339 . 6 g 1.0
Ga3 Ga 0.2466 0.0 0.5 . 3 f 1.0
Ba4 Ba 0.59472 0.0 0.0 . 3 e 1.0
O5 O 0.33333 0.66666 0.239 . 2 d 1.0
Si6 Si 0.33333 0.66666 0.5294 . 2 d 1.0
Nb7 Nb 0.0 0.0 0.0 . 1 a 1.0

