data_00-059-0751
# Copyright 2025 International Centre for Diffraction Data. All rights reserved.

_audit_creation_date                  2025-07-04
_audit_creation_method                'Generated by PDF-5+ 2025 4.25.0.2'

_chemical_name_systematic             'Lithium Chromium Phosphate'
_chemical_formula_moiety              'Li Cr P2 O7'
_chemical_formula_sum                 'Cr Li O7 P2'
_chemical_formula_weight              232.88

# Atomic parameters are cross-referenced from PDF entry 04-014-7884

_cell_length_a                        6.9019(10)
_cell_length_b                        7.9919(11)
_cell_length_c                        4.7807(7)
_cell_angle_alpha                     90
_cell_angle_beta                      109.003(4)
_cell_angle_gamma                     90
_cell_formula_units_Z                 2
_cell_volume                          249.33
_symmetry_cell_setting                monoclinic
_symmetry_space_group_name_H-M        P21
_symmetry_Int_Tables_number           4

loop_
_symmetry_equiv_pos_site_id
_symmetry_equiv_pos_as_xyz
1 x,y,z
2 -x,y+1/2,-z

loop_
_atom_site_label
_atom_site_type_symbol
_atom_site_fract_x
_atom_site_fract_y
_atom_site_fract_z
_atom_site_U_iso_or_equiv
_atom_site_symmetry_multiplicity
_atom_site_Wyckoff_symbol
_atom_site_occupancy
Cr1 Cr 0.2277 0.25 0.216 0.005 2 a 1.0
P2 P 0.419 0.4669 0.7984 0.005 2 a 1.0
P3 P 0.0196 0.5654 0.4005 0.005 2 a 1.0
O4 O 0.422 0.3125 0.611 0.0095 2 a 1.0
O5 O 0.6216 0.5652 0.869 0.0095 2 a 1.0
O6 O 0.351 0.427 1.065 0.0095 2 a 1.0
O7 O 0.006 0.3996 0.254 0.0095 2 a 1.0
O8 O -0.0177 0.711 0.192 0.0095 2 a 1.0
O9 O -0.116 0.5673 0.602 0.0095 2 a 1.0
O10 O 0.2562 0.5994 0.589 0.0095 2 a 1.0
Li11 Li 0.8226 0.378 0.8219 0.025 2 a 1.0

