data_00-063-0587
# Copyright 2025 International Centre for Diffraction Data. All rights reserved.

_audit_creation_date                  2025-07-06
_audit_creation_method                'Generated by PDF-5+ 2025 4.25.0.2'

_chemical_name_systematic             'Indium Iodide'
_chemical_formula_moiety              'In I'
_chemical_formula_sum                 'I In'
_chemical_formula_weight              241.72
_chemical_melting_point               638.15

_cell_length_a                        4.76633(22)
_cell_length_b                        4.91199(17)
_cell_length_c                        6.8224(4)
_cell_angle_alpha                     90.0
_cell_angle_beta                      110.429(5)
_cell_angle_gamma                     90.0
_cell_formula_units_Z                 2
_cell_volume                          149.68
_symmetry_cell_setting                monoclinic
_symmetry_space_group_name_H-M        P121/m1
_symmetry_Int_Tables_number           11

loop_
_symmetry_equiv_pos_site_id
_symmetry_equiv_pos_as_xyz
1 x,y,z
2 -x,-y,-z
3 -x,y+1/2,-z
4 x,-y+1/2,z

loop_
_atom_site_label
_atom_site_type_symbol
_atom_site_fract_x
_atom_site_fract_y
_atom_site_fract_z
_atom_site_U_iso_or_equiv
_atom_site_symmetry_multiplicity
_atom_site_Wyckoff_symbol
_atom_site_occupancy
In1 In 0.04096 0.25 0.321382 0.056 . . 1.0
I2 I 0.848028 0.75 0.189768 0.0467 . . 1.0

