data_00-059-0581
# Copyright 2025 International Centre for Diffraction Data. All rights reserved.

_audit_creation_date                  2025-07-04
_audit_creation_method                'Generated by PDF-5+ 2025 4.25.0.2'

_chemical_name_systematic             'Cadmium Vanadium Oxide'
_chemical_formula_moiety              'Cd V2 O6'
_chemical_formula_sum                 'Cd O6 V2'
_chemical_formula_weight              310.29

_cell_length_a                        4.9456(3)
_cell_length_b                        5.6962(3)
_cell_length_c                        14.1673(9)
_cell_angle_alpha                     90.0
_cell_angle_beta                      90.0
_cell_angle_gamma                     90.0
_cell_formula_units_Z                 4
_cell_volume                          399.11
_symmetry_cell_setting                orthorhombic
_symmetry_space_group_name_H-M        Pnab
_symmetry_Int_Tables_number           60

loop_
_symmetry_equiv_pos_site_id
_symmetry_equiv_pos_as_xyz
1 x,y,z
2 -x,-y,-z
3 x+1/2,-y+1/2,-z+1/2
4 -x+1/2,y+1/2,z+1/2
5 -x,-y+1/2,z+1/2
6 x,y+1/2,-z+1/2
7 -x+1/2,y,-z
8 x+1/2,-y,z

loop_
_atom_site_label
_atom_site_type_symbol
_atom_site_fract_x
_atom_site_fract_y
_atom_site_fract_z
_atom_site_U_iso_or_equiv
_atom_site_symmetry_multiplicity
_atom_site_Wyckoff_symbol
_atom_site_occupancy
Cd1 Cd 0.75 0.7723 1.0 0.00857 . . 1.0
V2 V 0.72263 0.31327 0.833072 0.00574 . . 1.0
O3 O 0.5083 0.57752 0.89624 0.00838 . . 1.0
O4 O 0.3843 0.35145 0.75452 0.0083 . . 1.0
O5 O 0.6127 0.11338 0.90865 0.00938 . . 1.0

