data_00-054-0563
# Copyright 2025 International Centre for Diffraction Data. All rights reserved.

_audit_creation_date                  2025-07-04
_audit_creation_method                'Generated by PDF-5+ 2025 4.25.0.2'

_chemical_name_systematic             'Cerium Platinum'
_chemical_formula_moiety              'Ce7 Pt3'
_chemical_formula_sum                 'Ce7 Pt3'
_chemical_formula_weight              1566.06
_chemical_melting_point               1133.0

# Atomic parameters are cross-referenced from PDF entry 04-001-1148

_cell_length_a                        10.204
_cell_length_b                        10.204
_cell_length_c                        6.399
_cell_angle_alpha                     90
_cell_angle_beta                      90
_cell_angle_gamma                     120
_cell_formula_units_Z                 2
_cell_volume                          577.01
_symmetry_cell_setting                hexagonal
_symmetry_space_group_name_H-M        P63mc
_symmetry_Int_Tables_number           186

loop_
_symmetry_equiv_pos_site_id
_symmetry_equiv_pos_as_xyz
1 x,y,z
2 -y,x-y,z
3 -x+y,-x,z
4 -y,-x,z
5 x,x-y,z
6 -x+y,y,z
7 -x,-y,z+1/2
8 y,-x+y,z+1/2
9 x-y,x,z+1/2
10 y,x,z+1/2
11 -x,-x+y,z+1/2
12 x-y,-y,z+1/2

loop_
_atom_site_label
_atom_site_type_symbol
_atom_site_fract_x
_atom_site_fract_y
_atom_site_fract_z
_atom_site_U_iso_or_equiv
_atom_site_symmetry_multiplicity
_atom_site_Wyckoff_symbol
_atom_site_occupancy
Ce1 Ce 0.126 0.874 0.19 . 6 c 1.0
Ce2 Ce 0.456 0.544 0.47 . 6 c 1.0
Pt3 Pt 0.815 0.185 0.25 . 6 c 1.0
Ce4 Ce 0.33333 0.66666 0.0 . 2 b 1.0

