data_00-064-0428
# Copyright 2025 International Centre for Diffraction Data. All rights reserved.

_audit_creation_date                  2025-07-06
_audit_creation_method                'Generated by PDF-5+ 2025 4.25.0.2'

_chemical_name_systematic             'Scandium Rhodium Oxide'
_chemical_formula_moiety              'Sc Rh O3'
_chemical_formula_sum                 'O3 Rh Sc'
_chemical_formula_weight              195.86

# Atomic parameters are cross-referenced from PDF entry 04-020-4058

_cell_length_a                        5.44572(1)
_cell_length_b                        7.43525(1)
_cell_length_c                        5.14139(1)
_cell_angle_alpha                     90
_cell_angle_beta                      90.5005(1)
_cell_angle_gamma                     90
_cell_formula_units_Z                 4
_cell_volume                          208.17
_symmetry_cell_setting                monoclinic
_symmetry_space_group_name_H-M        P21/m
_symmetry_Int_Tables_number           11

loop_
_symmetry_equiv_pos_site_id
_symmetry_equiv_pos_as_xyz
1 x,y,z
2 -x,-y,-z
3 -x,y+1/2,-z
4 x,-y+1/2,z

loop_
_atom_site_label
_atom_site_type_symbol
_atom_site_fract_x
_atom_site_fract_y
_atom_site_fract_z
_atom_site_B_iso_or_equiv
_atom_site_symmetry_multiplicity
_atom_site_Wyckoff_symbol
_atom_site_occupancy
Sc1 Sc 0.5695 0.25 0.5192 0.59 2 e 1.0
Sc2 Sc 0.0656 0.25 0.9886 0.69 2 e 1.0
Rh3 Rh 0.0 0.0 0.5 0.23 2 c 1.0
Rh4 Rh 0.5 0.0 0.0 0.25 2 b 1.0
O5 O 0.4252 0.25 0.1413 1.64 2 e 1.0
O6 O 0.921 0.25 0.3512 1.64 2 e 1.0
O7 O 0.1799 0.9264 0.1742 1.64 4 f 1.0
O8 O 0.3275 0.0617 0.6653 1.64 4 f 1.0

