data_00-061-0389
# Copyright 2025 International Centre for Diffraction Data. All rights reserved.

_audit_creation_date                  2025-07-04
_audit_creation_method                'Generated by PDF-5+ 2025 4.25.0.2'

_chemical_name_systematic             'Iron Strontium Scandium Oxide Arsenide'
_chemical_formula_moiety              'Fe2 Sr3 Sc2 O5 As2'
_chemical_formula_structural          '( Sr3 Sc2 O5 ) Fe2 As2'
_chemical_formula_sum                 'As2 Fe2 O5 Sc2 Sr3'
_chemical_formula_weight              694.30

_cell_length_a                        4.069
_cell_length_b                        4.069
_cell_length_c                        26.876
_cell_angle_alpha                     90.0
_cell_angle_beta                      90.0
_cell_angle_gamma                     90.0
_cell_formula_units_Z                 2
_cell_volume                          444.98
_symmetry_cell_setting                tetragonal
_symmetry_space_group_name_H-M        I4/mmm
_symmetry_Int_Tables_number           139

loop_
_symmetry_equiv_pos_site_id
_symmetry_equiv_pos_as_xyz
1 x,y,z
2 -x,-y,-z
3 -x,-y,z
4 x,y,-z
5 -x,y,z
6 x,-y,-z
7 x,-y,z
8 -x,y,-z
9 -y,x,z
10 y,-x,-z
11 y,-x,z
12 -y,x,-z
13 y,x,z
14 -y,-x,-z
15 -y,-x,z
16 y,x,-z
17 x+1/2,y+1/2,z+1/2
18 -x+1/2,-y+1/2,-z+1/2
19 -x+1/2,-y+1/2,z+1/2
20 x+1/2,y+1/2,-z+1/2
21 -x+1/2,y+1/2,z+1/2
22 x+1/2,-y+1/2,-z+1/2
23 x+1/2,-y+1/2,z+1/2
24 -x+1/2,y+1/2,-z+1/2
25 -y+1/2,x+1/2,z+1/2
26 y+1/2,-x+1/2,-z+1/2
27 y+1/2,-x+1/2,z+1/2
28 -y+1/2,x+1/2,-z+1/2
29 y+1/2,x+1/2,z+1/2
30 -y+1/2,-x+1/2,-z+1/2
31 -y+1/2,-x+1/2,z+1/2
32 y+1/2,x+1/2,-z+1/2

loop_
_atom_site_label
_atom_site_type_symbol
_atom_site_fract_x
_atom_site_fract_y
_atom_site_fract_z
_atom_site_B_iso_or_equiv
_atom_site_symmetry_multiplicity
_atom_site_Wyckoff_symbol
_atom_site_occupancy
Sc1 Sc 0.0 0.0 0.07399 0.28 4 e 1.0
Fe2 Fe 0.5 0.0 0.25 0.46 4 d 1.0
Sr3 Sr 0.5 0.5 0.0 1.2 2 b 1.0
Sr4 Sr 0.5 0.5 0.14006 0.51 4 e 1.0
As5 As 0.0 0.0 0.20018 0.62 4 e 1.0
O6 O 0.5 0.0 0.08323 0.54 8 g 1.0
O7 O 0.0 0.0 0.0 0.82 2 a 1.0

