data_00-059-0210
# Copyright 2025 International Centre for Diffraction Data. All rights reserved.

_audit_creation_date                  2025-07-04
_audit_creation_method                'Generated by PDF-5+ 2025 4.25.0.2'

_chemical_name_systematic             'Holmium Indium Palladium'
_chemical_formula_moiety              'Ho5 In4 Pd2'
_chemical_formula_sum                 'Ho5 In4 Pd2'
_chemical_formula_weight              1496.76

_cell_length_a                        18.0374(3)
_cell_length_b                        7.96814(1)
_cell_length_c                        3.60880(8)
_cell_angle_alpha                     90.0
_cell_angle_beta                      90.0
_cell_angle_gamma                     90.0
_cell_formula_units_Z                 2
_cell_volume                          518.67
_symmetry_cell_setting                orthorhombic
_symmetry_space_group_name_H-M        Pbam
_symmetry_Int_Tables_number           55

loop_
_symmetry_equiv_pos_site_id
_symmetry_equiv_pos_as_xyz
1 x,y,z
2 -x,-y,-z
3 -x,-y,z
4 x,y,-z
5 x+1/2,-y+1/2,-z
6 -x+1/2,y+1/2,z
7 -x+1/2,y+1/2,-z
8 x+1/2,-y+1/2,z

loop_
_atom_site_label
_atom_site_type_symbol
_atom_site_fract_x
_atom_site_fract_y
_atom_site_fract_z
_atom_site_B_iso_or_equiv
_atom_site_symmetry_multiplicity
_atom_site_Wyckoff_symbol
_atom_site_occupancy
HO1 HO 0.0 0.0 0.0 0.73 . . 1.0
HO2 HO 0.2188 0.2408 0.0 0.71 . . 1.0
HO3 HO 0.4197 0.1209 0.0 0.68 . . 1.0
PD4 PD 0.3042 0.0285 0.5 0.65 . . 1.0
IN5 IN 0.5677 0.2112 0.5 0.65 . . 1.0
IN6 IN 0.851 0.078 0.5 0.66 . . 1.0

