data_00-053-0368
# Copyright 2025 International Centre for Diffraction Data. All rights reserved.

_audit_creation_date                  2025-07-04
_audit_creation_method                'Generated by PDF-5+ 2025 4.25.0.2'

_chemical_name_systematic             'Cadmium Arsenate'
_chemical_formula_moiety              'Cd2 As2 O7'
_chemical_formula_sum                 'As2 Cd2 O7'
_chemical_formula_weight              486.66

# Atomic parameters are cross-referenced from PDF entry 04-011-2034

_cell_length_a                        6.9446(14)
_cell_length_b                        9.0365(14)
_cell_length_c                        4.8530(8)
_cell_angle_alpha                     90
_cell_angle_beta                      101.77(1)
_cell_angle_gamma                     90
_cell_formula_units_Z                 2
_cell_volume                          298.15
_symmetry_cell_setting                monoclinic
_symmetry_space_group_name_H-M        C2/m
_symmetry_Int_Tables_number           12

loop_
_symmetry_equiv_pos_site_id
_symmetry_equiv_pos_as_xyz
1 x,y,z
2 -x,-y,-z
3 x,-y,z
4 -x,y,-z
5 x+1/2,y+1/2,z
6 -x+1/2,-y+1/2,-z
7 x+1/2,-y+1/2,z
8 -x+1/2,y+1/2,-z

loop_
_atom_site_label
_atom_site_type_symbol
_atom_site_fract_x
_atom_site_fract_y
_atom_site_fract_z
_atom_site_U_iso_or_equiv
_atom_site_symmetry_multiplicity
_atom_site_Wyckoff_symbol
_atom_site_occupancy
Cd1 Cd 0.0 0.30427 0.5 0.0112 4 h 1.0
As2 As 0.22491 0.0 0.91086 0.00851 4 i 1.0
O3 O 0.0 0.0 0.0 0.07006 2 a 1.0
O4 O 0.3843 0.0 0.2172 0.01484 4 i 1.0
O5 O 0.2344 0.1541 0.7247 0.01528 8 j 1.0

loop_
_atom_site_aniso_label
_atom_site_aniso_U_11
_atom_site_aniso_U_12
_atom_site_aniso_U_13
_atom_site_aniso_U_22
_atom_site_aniso_U_23
_atom_site_aniso_U_33
Cd1 0.00994 0.0 9.9E-4 0.01029 0.0 0.0128
As2 0.0069 0.0 0.00128 0.01061 0.0 0.00793
O3 0.017 0.0 0.034 0.113 0.0 0.09
O4 0.021 0.0 -0.0043 0.012 0.0 0.0084
O5 0.0164 0.0041 0.0032 0.0135 0.0058 0.0159

