data_00-055-0622
# Copyright 2025 International Centre for Diffraction Data. All rights reserved.

_audit_creation_date                  2025-07-04
_audit_creation_method                'Generated by PDF-5+ 2025 4.25.0.2'

_chemical_name_systematic             'Thallium Aluminum Molybdenum Oxide'
_chemical_formula_moiety              'Tl Al ( Mo O4 )2'
_chemical_formula_sum                 'Al Mo2 O8 Tl'
_chemical_formula_weight              551.25
_chemical_melting_point               963.0

# Atomic parameters are cross-referenced from PDF entry 04-011-9680

_cell_length_a                        5.5437(1)
_cell_length_b                        5.5437(1)
_cell_length_c                        7.3903(1)
_cell_angle_alpha                     90
_cell_angle_beta                      90
_cell_angle_gamma                     120
_cell_formula_units_Z                 1
_cell_volume                          196.69
_symmetry_cell_setting                hexagonal
_symmetry_space_group_name_H-M        P-3m1
_symmetry_Int_Tables_number           164

loop_
_symmetry_equiv_pos_site_id
_symmetry_equiv_pos_as_xyz
1 x,y,z
2 -x,-y,-z
3 -y,x-y,z
4 y,-x+y,-z
5 -x+y,-x,z
6 x-y,x,-z
7 -y,-x,z
8 y,x,-z
9 x,x-y,z
10 -x,-x+y,-z
11 -x+y,y,z
12 x-y,-y,-z

loop_
_atom_site_label
_atom_site_type_symbol
_atom_site_fract_x
_atom_site_fract_y
_atom_site_fract_z
_atom_site_B_iso_or_equiv
_atom_site_symmetry_multiplicity
_atom_site_Wyckoff_symbol
_atom_site_occupancy
Tl1 Tl 0.0 0.0 0.5 2.81 1 b 1.0
Al2 Al 0.0 0.0 0.0 1.61 1 a 1.0
Mo3 Mo 0.33333 0.66666 0.778 1.39 2 d 1.0
O4 O 0.33333 0.66666 0.535 3.9 2 d 1.0
O5 O 0.1615 -0.1615 0.8529 2.4 6 i 1.0

