data_00-062-0127
# Copyright 2025 International Centre for Diffraction Data. All rights reserved.

_audit_creation_date                  2025-07-06
_audit_creation_method                'Generated by PDF-5+ 2025 4.25.0.2'

_chemical_name_systematic             'Silver Vanadium Phosphate'
_chemical_formula_moiety              'Ag V P2 O7'
_chemical_formula_sum                 'Ag O7 P2 V'
_chemical_formula_weight              332.75

_cell_length_a                        7.3313(4)
_cell_length_b                        8.0162(3)
_cell_length_c                        9.5791(4)
_cell_angle_alpha                     90.0
_cell_angle_beta                      111.968(5)
_cell_angle_gamma                     90.0
_cell_formula_units_Z                 4
_cell_volume                          523.63
_symmetry_cell_setting                monoclinic
_symmetry_space_group_name_H-M        P121/c1
_symmetry_Int_Tables_number           14

loop_
_symmetry_equiv_pos_site_id
_symmetry_equiv_pos_as_xyz
1 x,y,z
2 -x,-y,-z
3 -x,y+1/2,-z+1/2
4 x,-y+1/2,z+1/2

loop_
_atom_site_label
_atom_site_type_symbol
_atom_site_fract_x
_atom_site_fract_y
_atom_site_fract_z
_atom_site_U_iso_or_equiv
_atom_site_symmetry_multiplicity
_atom_site_Wyckoff_symbol
_atom_site_occupancy
V1 V 0.73813 0.99314 0.25008 0.00721 . . 1.0
Ag2 Ag 0.70725 0.97214 -0.30944 0.02175 . . 1.0
P3 P 0.67437 1.20827 -0.04563 0.00767 . . 1.0
P4 P 1.07485 1.25414 -0.04392 0.00752 . . 1.0
O5 O 0.81255 0.79499 0.37957 0.0118 . . 1.0
O6 O 1.00702 1.08981 0.35882 0.0106 . . 1.0
O7 O 0.88138 1.15476 -0.05252 0.0113 . . 1.0
O8 O 0.81491 0.8644 0.10276 0.0123 . . 1.0
O9 O 0.68619 1.19365 0.11473 0.0111 . . 1.0
O10 O 0.63936 1.38826 -0.09941 0.0108 . . 1.0
O11 O 0.53468 1.0863 -0.15395 0.0116 . . 1.0

