data_00-067-0129
# Copyright 2025 International Centre for Diffraction Data. All rights reserved.

_audit_creation_date                  2025-07-06
_audit_creation_method                'Generated by PDF-5+ 2025 4.25.0.2'

_chemical_name_systematic             'Lanthanum Gallium Oxide'
_chemical_name_common                 'lanthanum orthogallate'
_chemical_formula_moiety              'La Ga O3'
_chemical_formula_sum                 'Ga La O3'
_chemical_formula_weight              256.62

_cell_length_a                        5.5239(1)
_cell_length_b                        5.4924(1)
_cell_length_c                        7.7737(3)
_cell_angle_alpha                     90.0
_cell_angle_beta                      90.0
_cell_angle_gamma                     90.0
_cell_formula_units_Z                 4
_cell_volume                          235.85
_symmetry_cell_setting                orthorhombic
_symmetry_space_group_name_H-M        Pbnm
_symmetry_Int_Tables_number           62

loop_
_symmetry_equiv_pos_site_id
_symmetry_equiv_pos_as_xyz
1 x,y,z
2 -x,-y,-z
3 -x+1/2,y+1/2,-z+1/2
4 x+1/2,-y+1/2,z+1/2
5 -x,-y,z+1/2
6 x,y,-z+1/2
7 x+1/2,-y+1/2,-z
8 -x+1/2,y+1/2,z

loop_
_atom_site_label
_atom_site_type_symbol
_atom_site_fract_x
_atom_site_fract_y
_atom_site_fract_z
_atom_site_B_iso_or_equiv
_atom_site_symmetry_multiplicity
_atom_site_Wyckoff_symbol
_atom_site_occupancy
La1 La -0.0051 0.0177 0.25 0.61667 . . 1.0
Ga2 Ga 0.5 0.0 0.0 0.48333 . . 1.0
O3 O 0.0671 0.4937 0.25 0.70667 . . 1.0
O4 O -0.2711 0.2713 0.0358 0.78667 . . 1.0

loop_
_atom_site_aniso_label
_atom_site_aniso_B_11
_atom_site_aniso_B_12
_atom_site_aniso_B_13
_atom_site_aniso_B_22
_atom_site_aniso_B_23
_atom_site_aniso_B_33
La1 0.58 -0.11 0.0 0.59 0.0 0.68
Ga2 0.34 0.0 -0.11 0.5 -0.01 0.61
O3 0.67 -0.06 0.0 0.96 0.0 0.49
O4 0.69 -0.24 0.15 0.72 -0.03 0.95

