data_00-063-0342
# Copyright 2025 International Centre for Diffraction Data. All rights reserved.

_audit_creation_date                  2025-07-06
_audit_creation_method                'Generated by PDF-5+ 2025 4.25.0.2'

_chemical_name_systematic             'Gadolinium Barium Cobalt Oxide'
_chemical_formula_moiety              'Gd Ba Co2 O5.57'
_chemical_formula_sum                 'Ba Co2 Gd O5.57'
_chemical_formula_weight              501.56

_cell_length_a                        3.877
_cell_length_b                        7.825
_cell_length_c                        7.542
_cell_angle_alpha                     90.0
_cell_angle_beta                      90.0
_cell_angle_gamma                     90.0
_cell_formula_units_Z                 2
_cell_volume                          228.81
_symmetry_cell_setting                orthorhombic
_symmetry_space_group_name_H-M        Pmmm
_symmetry_Int_Tables_number           47

loop_
_symmetry_equiv_pos_site_id
_symmetry_equiv_pos_as_xyz
1 x,y,z
2 -x,-y,-z
3 -x,-y,z
4 x,y,-z
5 x,-y,-z
6 -x,y,z
7 -x,y,-z
8 x,-y,z

loop_
_atom_site_label
_atom_site_type_symbol
_atom_site_fract_x
_atom_site_fract_y
_atom_site_fract_z
_atom_site_U_iso_or_equiv
_atom_site_symmetry_multiplicity
_atom_site_Wyckoff_symbol
_atom_site_occupancy
Gd1 Gd 0.5 0.272 0.5 . 2 p 1.0
Ba2 Ba 0.5 0.25 0.0 . 2 o 1.0
Co3 Co 0.0 0.5 0.25 . 2 r 1.0
Co4 Co 0.0 0.0 0.25 . 2 q 1.0
O5 O 0.0 0.0 0.0 . 1 a 1.0
O6 O 0.0 0.5 0.0 . 1 e 1.0
O7 O 0.0 0.5 0.5 . 1 g 1.0
O8 O 0.0 0.0 0.5 . 1 c 1.0
O9 O 0.5 0.0 0.307 . 2 s 1.0
O10 O 0.5 0.5 0.266 . 2 t 1.0
O11 O 0.0 0.244 0.279 . 4 u 1.0

