data_00-066-0187
# Copyright 2025 International Centre for Diffraction Data. All rights reserved.

_audit_creation_date                  2025-07-06
_audit_creation_method                'Generated by PDF-5+ 2025 4.25.0.2'

_chemical_name_systematic             'Indium Oxide'
_chemical_formula_moiety              'In2 O3'
_chemical_formula_sum                 'In2 O3'
_chemical_formula_weight              277.63

_cell_length_a                        5.3934(14)
_cell_length_b                        5.5002(15)
_cell_length_c                        15.589(4)
_cell_angle_alpha                     90.0
_cell_angle_beta                      90.0
_cell_angle_gamma                     90.0
_cell_formula_units_Z                 8
_cell_volume                          462.44
_symmetry_cell_setting                orthorhombic
_symmetry_space_group_name_H-M        Pbca
_symmetry_Int_Tables_number           61

loop_
_symmetry_equiv_pos_site_id
_symmetry_equiv_pos_as_xyz
1 x,y,z
2 -x,-y,-z
3 x+1/2,-y+1/2,-z
4 -x+1/2,y+1/2,z
5 -x,y+1/2,-z+1/2
6 x,-y+1/2,z+1/2
7 -x+1/2,-y,z+1/2
8 x+1/2,y,-z+1/2

loop_
_atom_site_label
_atom_site_type_symbol
_atom_site_fract_x
_atom_site_fract_y
_atom_site_fract_z
_atom_site_U_iso_or_equiv
_atom_site_symmetry_multiplicity
_atom_site_Wyckoff_symbol
_atom_site_occupancy
O1 O 0.3595 0.8772 0.7016 0.06311 . . 1.0
O2 O 0.2066 0.5233 0.8752 0.06311 . . 1.0
O3 O 0.1465 0.6581 0.5526 0.06311 . . 1.0
In4 In 0.006 0.753 -0.0472 0.06311 . . 1.0
In5 In 0.006 0.754 0.6823 0.06311 . . 1.0

