data_00-060-0507
# Copyright 2025 International Centre for Diffraction Data. All rights reserved.

_audit_creation_date                  2025-07-04
_audit_creation_method                'Generated by PDF-5+ 2025 4.25.0.2'

_chemical_name_systematic             'Lithium Calcium Tantalum Oxide'
_chemical_formula_moiety              'Li2 Ca Ta2 O7'
_chemical_formula_sum                 'Ca Li2 O7 Ta2'
_chemical_formula_weight              527.85

_cell_length_a                        5.5153(1)
_cell_length_b                        5.4646(1)
_cell_length_c                        18.2375(3)
_cell_angle_alpha                     90.0
_cell_angle_beta                      90.0
_cell_angle_gamma                     90.0
_cell_formula_units_Z                 4
_cell_volume                          549.66
_symmetry_cell_setting                orthorhombic
_symmetry_space_group_name_H-M        Fmmm
_symmetry_Int_Tables_number           69

loop_
_symmetry_equiv_pos_site_id
_symmetry_equiv_pos_as_xyz
1 x,y,z
2 -x,-y,-z
3 x,-y,-z
4 -x,y,z
5 -x,y,-z
6 x,-y,z
7 -x,-y,z
8 x,y,-z
9 x,y+1/2,z+1/2
10 -x,-y+1/2,-z+1/2
11 x,-y+1/2,-z+1/2
12 -x,y+1/2,z+1/2
13 -x,y+1/2,-z+1/2
14 x,-y+1/2,z+1/2
15 -x,-y+1/2,z+1/2
16 x,y+1/2,-z+1/2
17 x+1/2,y,z+1/2
18 -x+1/2,-y,-z+1/2
19 x+1/2,-y,-z+1/2
20 -x+1/2,y,z+1/2
21 -x+1/2,y,-z+1/2
22 x+1/2,-y,z+1/2
23 -x+1/2,-y,z+1/2
24 x+1/2,y,-z+1/2
25 x+1/2,y+1/2,z
26 -x+1/2,-y+1/2,-z
27 x+1/2,-y+1/2,-z
28 -x+1/2,y+1/2,z
29 -x+1/2,y+1/2,-z
30 x+1/2,-y+1/2,z
31 -x+1/2,-y+1/2,z
32 x+1/2,y+1/2,-z

loop_
_atom_site_label
_atom_site_type_symbol
_atom_site_fract_x
_atom_site_fract_y
_atom_site_fract_z
_atom_site_B_iso_or_equiv
_atom_site_symmetry_multiplicity
_atom_site_Wyckoff_symbol
_atom_site_occupancy
Ta1 Ta 0.0 0.0 0.38773 0.815 8 i 1.0
Ca2 Ca 0.0 0.0 0.0 2.157 4 a 1.0
O3 O 0.25 0.25 0.10036 6.143 16 j 1.0
O4 O 0.0 0.0 0.29004 6.143 8 i 1.0
O5 O 0.0 0.0 0.5 6.143 4 b 1.0
Li6 Li 0.25 0.25 0.25 2.838 8 f 1.0

