data_00-057-0451
# Copyright 2025 International Centre for Diffraction Data. All rights reserved.

_audit_creation_date                  2025-07-04
_audit_creation_method                'Generated by PDF-5+ 2025 4.25.0.2'

_chemical_name_systematic             'Copper Yttrium Sulfide'
_chemical_formula_moiety              'Y Cu S2'
_chemical_formula_sum                 'Cu S2 Y'
_chemical_formula_weight              216.58

# Atomic parameters are cross-referenced from PDF entry 04-012-7692

_cell_length_a                        6.2756(2)
_cell_length_b                        13.3863(4)
_cell_length_c                        3.9704(1)
_cell_angle_alpha                     90
_cell_angle_beta                      90
_cell_angle_gamma                     90
_cell_formula_units_Z                 4
_cell_volume                          333.54
_symmetry_cell_setting                orthorhombic
_symmetry_space_group_name_H-M        P212121
_symmetry_Int_Tables_number           19

loop_
_symmetry_equiv_pos_site_id
_symmetry_equiv_pos_as_xyz
1 x,y,z
2 -x+1/2,-y,z+1/2
3 x+1/2,-y+1/2,-z
4 -x,y+1/2,-z+1/2

loop_
_atom_site_label
_atom_site_type_symbol
_atom_site_fract_x
_atom_site_fract_y
_atom_site_fract_z
_atom_site_B_iso_or_equiv
_atom_site_symmetry_multiplicity
_atom_site_Wyckoff_symbol
_atom_site_occupancy
Y1 Y 0.242 0.13515 0.249 0.55 4 a 1.0
Cu2 Cu 0.6431 0.055 0.779 2.19 4 a 1.0
S3 S 0.0129 0.0386 0.765 0.3 4 a 1.0
S4 S 0.4806 0.2093 0.73 0.12 4 a 1.0

