data_00-057-0167
# Copyright 2025 International Centre for Diffraction Data. All rights reserved.

_audit_creation_date                  2025-07-04
_audit_creation_method                'Generated by PDF-5+ 2025 4.25.0.2'

_chemical_name_systematic             'Sodium Scandium Arsenate'
_chemical_formula_moiety              'Na Sc As2 O7'
_chemical_formula_sum                 'As2 Na O7 Sc'
_chemical_formula_weight              329.78

# Atomic parameters are cross-referenced from PDF entry 04-015-2842

_cell_length_a                        6.959(1)
_cell_length_b                        8.712(2)
_cell_length_c                        4.817(1)
_cell_angle_alpha                     90
_cell_angle_beta                      102.05(3)
_cell_angle_gamma                     90
_cell_formula_units_Z                 2
_cell_volume                          285.60
_symmetry_cell_setting                monoclinic
_symmetry_space_group_name_H-M        C2
_symmetry_Int_Tables_number           5

loop_
_symmetry_equiv_pos_site_id
_symmetry_equiv_pos_as_xyz
1 x,y,z
2 -x,y,-z
3 x+1/2,y+1/2,z
4 -x+1/2,y+1/2,-z

loop_
_atom_site_label
_atom_site_type_symbol
_atom_site_fract_x
_atom_site_fract_y
_atom_site_fract_z
_atom_site_U_iso_or_equiv
_atom_site_symmetry_multiplicity
_atom_site_Wyckoff_symbol
_atom_site_occupancy
Na1 Na 0.0 0.7541 0.5 0.0294 2 b 1.0
Sc2 Sc 0.0 0.36848 0.5 0.00704 2 b 1.0
As3 As 0.21296 1.037048 0.91451 0.00676 4 c 1.0
O4 O 0.0 0.9613 0.0 0.01502 2 a 1.0
O5 O 0.3752 0.0477 0.2212 0.00831 4 c 1.0
O6 O 0.1665 0.2053 0.7554 0.01414 4 c 1.0
O7 O 0.2607 0.9014 0.6964 0.00987 4 c 1.0

loop_
_atom_site_aniso_label
_atom_site_aniso_U_11
_atom_site_aniso_U_12
_atom_site_aniso_U_13
_atom_site_aniso_U_22
_atom_site_aniso_U_23
_atom_site_aniso_U_33
Na1 0.0232 0.0 -0.016 0.0145 0.0 0.0406
Sc2 0.0081 0.0 0.0022 0.0067 0.0 0.0066
As3 0.00721 6.9E-4 0.0013 0.00664 5.1E-4 0.00637
O4 0.0092 0.0 0.0096 0.0135 0.0 0.025
O5 0.01 -1.0E-4 -0.0021 0.0057 0.0012 0.0075
O6 0.0181 0.003 2.0E-4 0.0081 0.0038 0.0148
O7 0.0101 -0.0021 0.0049 0.01 -0.0034 0.0107

