data_00-057-0698
# Copyright 2025 International Centre for Diffraction Data. All rights reserved.

_audit_creation_date                  2025-07-04
_audit_creation_method                'Generated by PDF-5+ 2025 4.25.0.2'

_chemical_name_systematic             'Dysprosium Vanadium Oxide'
_chemical_formula_moiety              'Dy V O4'
_chemical_formula_sum                 'Dy O4 V'
_chemical_formula_weight              277.44

# Atomic parameters are cross-referenced from PDF entry 04-017-5863

_cell_length_a                        7.153
_cell_length_b                        7.118
_cell_length_c                        6.310
_cell_angle_alpha                     90
_cell_angle_beta                      90
_cell_angle_gamma                     90
_cell_formula_units_Z                 4
_cell_volume                          321.27
_symmetry_cell_setting                orthorhombic
_symmetry_space_group_name_H-M        Imma
_symmetry_Int_Tables_number           74

loop_
_symmetry_equiv_pos_site_id
_symmetry_equiv_pos_as_xyz
1 x,y,z
2 -x,-y,-z
3 x,-y,-z
4 -x,y,z
5 x,y+1/2,-z
6 -x,-y+1/2,z
7 x,-y+1/2,z
8 -x,y+1/2,-z
9 x+1/2,y+1/2,z+1/2
10 -x+1/2,-y+1/2,-z+1/2
11 x+1/2,-y+1/2,-z+1/2
12 -x+1/2,y+1/2,z+1/2
13 x+1/2,y,-z+1/2
14 -x+1/2,-y,z+1/2
15 x+1/2,-y,z+1/2
16 -x+1/2,y,-z+1/2

loop_
_atom_site_label
_atom_site_type_symbol
_atom_site_fract_x
_atom_site_fract_y
_atom_site_fract_z
_atom_site_U_iso_or_equiv
_atom_site_symmetry_multiplicity
_atom_site_Wyckoff_symbol
_atom_site_occupancy
Dy1 Dy 0.0 0.25 -0.125 . 4 e 1.0
V2 V 0.0 0.25 0.375 . 4 e 1.0
O3 O 0.32 0.25 -0.07 . 8 i 1.0
O4 O 0.0 -0.07 -0.18 . 8 h 1.0

