data_00-059-0838
# Copyright 2025 International Centre for Diffraction Data. All rights reserved.

_audit_creation_date                  2025-07-04
_audit_creation_method                'Generated by PDF-5+ 2025 4.25.0.2'

_chemical_name_systematic             'Strontium Arsenate'
_chemical_formula_moiety              'Sr As2 O6'
_chemical_formula_sum                 'As2 O6 Sr'
_chemical_formula_weight              333.46

# Atomic parameters are cross-referenced from PDF entry 04-016-8173

_cell_length_a                        4.8580(10)
_cell_length_b                        4.8580(10)
_cell_length_c                        5.4260(10)
_cell_angle_alpha                     90
_cell_angle_beta                      90
_cell_angle_gamma                     120
_cell_formula_units_Z                 1
_cell_volume                          110.90
_symmetry_cell_setting                hexagonal
_symmetry_space_group_name_H-M        P-31m
_symmetry_Int_Tables_number           162

loop_
_symmetry_equiv_pos_site_id
_symmetry_equiv_pos_as_xyz
1 x,y,z
2 -x,-y,-z
3 -y,x-y,z
4 y,-x+y,-z
5 -x+y,-x,z
6 x-y,x,-z
7 y,x,z
8 -y,-x,-z
9 -x,-x+y,z
10 x,x-y,-z
11 x-y,-y,z
12 -x+y,y,-z

loop_
_atom_site_label
_atom_site_type_symbol
_atom_site_fract_x
_atom_site_fract_y
_atom_site_fract_z
_atom_site_U_iso_or_equiv
_atom_site_symmetry_multiplicity
_atom_site_Wyckoff_symbol
_atom_site_occupancy
Sr1 Sr 0.0 0.0 0.0 0.00499 1 a 1.0
As2 As 0.33333 0.66666 0.5 0.00242 2 d 1.0
O3 O 0.3838 0.0 0.3104 0.00532 6 k 1.0

loop_
_atom_site_aniso_label
_atom_site_aniso_U_11
_atom_site_aniso_U_12
_atom_site_aniso_U_13
_atom_site_aniso_U_22
_atom_site_aniso_U_23
_atom_site_aniso_U_33
Sr1 0.0067 0.00337 0.0 0.0067 0.0 0.0016
As2 0.002 0.00102 0.0 0.002 0.0 0.0033
O3 0.0056 0.0015 -0.0032 0.003 0.0 0.0065

