data_00-064-0215
# Copyright 2025 International Centre for Diffraction Data. All rights reserved.

_audit_creation_date                  2025-07-06
_audit_creation_method                'Generated by PDF-5+ 2025 4.25.0.2'

_chemical_name_systematic             'Europium Copper Phosphide'
_chemical_formula_moiety              'Eu Cu4 P3'
_chemical_formula_sum                 'Cu4 Eu P3'
_chemical_formula_weight              499.07

# Atomic parameters are cross-referenced from PDF entry 04-019-7416

_cell_length_a                        4.05761(5)
_cell_length_b                        4.05761(5)
_cell_length_c                        7.4392(1)
_cell_angle_alpha                     90
_cell_angle_beta                      90
_cell_angle_gamma                     90
_cell_formula_units_Z                 1
_cell_volume                          122.48
_symmetry_cell_setting                tetragonal
_symmetry_space_group_name_H-M        P4/mmm
_symmetry_Int_Tables_number           123

loop_
_symmetry_equiv_pos_site_id
_symmetry_equiv_pos_as_xyz
1 x,y,z
2 -x,-y,-z
3 -x,-y,z
4 x,y,-z
5 -x,y,z
6 x,-y,-z
7 x,-y,z
8 -x,y,-z
9 -y,x,z
10 y,-x,-z
11 y,-x,z
12 -y,x,-z
13 y,x,z
14 -y,-x,-z
15 -y,-x,z
16 y,x,-z

loop_
_atom_site_label
_atom_site_type_symbol
_atom_site_fract_x
_atom_site_fract_y
_atom_site_fract_z
_atom_site_B_iso_or_equiv
_atom_site_symmetry_multiplicity
_atom_site_Wyckoff_symbol
_atom_site_occupancy
Eu1 Eu 0.0 0.0 0.0 0.3 1 a 1.0
Cu2 Cu 0.5 0.0 0.3268 0.9 4 i 1.0
P3 P 0.0 0.0 0.5 0.6 1 b 1.0
P4 P 0.5 0.5 0.1515 0.4 2 h 1.0

