data_00-058-0386
# Copyright 2025 International Centre for Diffraction Data. All rights reserved.

_audit_creation_date                  2025-07-04
_audit_creation_method                'Generated by PDF-5+ 2025 4.25.0.2'

_chemical_name_systematic             'Rhodium Samarium Silicon'
_chemical_formula_moiety              'Rh Sm Si3'
_chemical_formula_sum                 'Rh Si3 Sm'
_chemical_formula_weight              337.52

_cell_length_a                        4.1844(1)
_cell_length_b                        4.1844(1)
_cell_length_c                        9.7636(1)
_cell_angle_alpha                     90.0
_cell_angle_beta                      90.0
_cell_angle_gamma                     90.0
_cell_formula_units_Z                 2
_cell_volume                          170.95
_symmetry_cell_setting                tetragonal
_symmetry_space_group_name_H-M        I4mm
_symmetry_Int_Tables_number           107

loop_
_symmetry_equiv_pos_site_id
_symmetry_equiv_pos_as_xyz
1 x,y,z
2 -x,-y,z
3 -x,y,z
4 x,-y,z
5 y,x,z
6 -y,-x,z
7 y,-x,z
8 -y,x,z
9 x+1/2,y+1/2,z+1/2
10 -x+1/2,-y+1/2,z+1/2
11 -x+1/2,y+1/2,z+1/2
12 x+1/2,-y+1/2,z+1/2
13 y+1/2,x+1/2,z+1/2
14 -y+1/2,-x+1/2,z+1/2
15 y+1/2,-x+1/2,z+1/2
16 -y+1/2,x+1/2,z+1/2

loop_
_atom_site_label
_atom_site_type_symbol
_atom_site_fract_x
_atom_site_fract_y
_atom_site_fract_z
_atom_site_U_iso_or_equiv
_atom_site_symmetry_multiplicity
_atom_site_Wyckoff_symbol
_atom_site_occupancy
Sm1 Sm 0.0 0.0 0.0 . 2 c 1.0
Rh2 Rh 0.0 0.0 0.6622 . 2 c 1.0
Si3 Si 0.0 0.0 0.42 . 2 c 1.0
Si4 Si 0.0 0.5 0.2688 . 4 d 1.0

