data_00-060-0180
# Copyright 2025 International Centre for Diffraction Data. All rights reserved.

_audit_creation_date                  2025-07-04
_audit_creation_method                'Generated by PDF-5+ 2025 4.25.0.2'

_chemical_name_systematic             'Gadolinium Indium Sulfide'
_chemical_formula_moiety              'Gd3 In S6'
_chemical_formula_sum                 'Gd3 In S6'
_chemical_formula_weight              778.95

# Atomic parameters are cross-referenced from PDF entry 04-015-6783

_cell_length_a                        13.544(1)
_cell_length_b                        16.502(1)
_cell_length_c                        3.8686(4)
_cell_angle_alpha                     90
_cell_angle_beta                      90
_cell_angle_gamma                     90
_cell_formula_units_Z                 4
_cell_volume                          864.64
_symmetry_cell_setting                orthorhombic
_symmetry_space_group_name_H-M        Pnnm
_symmetry_Int_Tables_number           58

loop_
_symmetry_equiv_pos_site_id
_symmetry_equiv_pos_as_xyz
1 x,y,z
2 -x,-y,-z
3 -x,-y,z
4 x,y,-z
5 x+1/2,-y+1/2,-z+1/2
6 -x+1/2,y+1/2,z+1/2
7 -x+1/2,y+1/2,-z+1/2
8 x+1/2,-y+1/2,z+1/2

loop_
_atom_site_label
_atom_site_type_symbol
_atom_site_fract_x
_atom_site_fract_y
_atom_site_fract_z
_atom_site_U_iso_or_equiv
_atom_site_symmetry_multiplicity
_atom_site_Wyckoff_symbol
_atom_site_occupancy
Gd1 Gd 0.54024 0.22296 0.0 0.00877 4 g 1.0
Gd2 Gd 0.31158 0.35398 0.0 0.0092 4 g 1.0
Gd3 Gd 0.75151 0.39365 0.0 0.0104 4 g 1.0
In4 In 0.0 0.0 0.0 0.0102 2 a 1.0
In5 In 0.0 0.5 0.0 0.01453 2 c 1.0
S6 S 0.113 0.385 0.0 0.00967 4 g 1.0
S7 S 0.4045 0.0851 0.0 0.009 4 g 1.0
S8 S 0.1817 0.2134 0.0 0.008 4 g 1.0
S9 S 0.8091 0.02 0.0 0.009 4 g 1.0
S10 S 0.5213 0.3958 0.0 0.01067 4 g 1.0
S11 S 0.8884 0.2473 0.0 0.00933 4 g 1.0

loop_
_atom_site_aniso_label
_atom_site_aniso_U_11
_atom_site_aniso_U_12
_atom_site_aniso_U_13
_atom_site_aniso_U_22
_atom_site_aniso_U_23
_atom_site_aniso_U_33
Gd1 0.0097 5.0E-4 0.0 0.0104 0.0 0.0062
Gd2 0.0104 5.0E-4 0.0 0.0107 0.0 0.0065
Gd3 0.013 -9.0E-4 0.0 0.012 0.0 0.0062
In4 0.0115 0.001 0.0 0.013 0.0 0.0061
In5 0.0135 0.0017 0.0 0.0102 0.0 0.0199
S6 0.012 0.003 0.0 0.009 0.0 0.008
S7 0.011 0.0 0.0 0.01 0.0 0.006
S8 0.007 0.003 0.0 0.009 0.0 0.008
S9 0.011 0.0 0.0 0.007 0.0 0.009
S10 0.013 0.001 0.0 0.01 0.0 0.009
S11 0.013 0.0 0.0 0.008 0.0 0.007

