data_00-054-0249
# Copyright 2025 International Centre for Diffraction Data. All rights reserved.

_audit_creation_date                  2025-07-04
_audit_creation_method                'Generated by PDF-5+ 2025 4.25.0.2'

_chemical_name_systematic             'Potassium Ytterbium Tungstate'
_chemical_formula_moiety              'K Yb ( W O4 )2'
_chemical_formula_sum                 'K O8 W2 Yb'
_chemical_formula_weight              707.82

# Atomic parameters are cross-referenced from PDF entry 04-011-5941

_cell_length_a                        10.590(4)
_cell_length_b                        10.290(6)
_cell_length_c                        7.478(2)
_cell_angle_alpha                     90
_cell_angle_beta                      130.70(2)
_cell_angle_gamma                     90
_cell_formula_units_Z                 4
_cell_volume                          617.79
_symmetry_cell_setting                monoclinic
_symmetry_space_group_name_H-M        C2/c
_symmetry_Int_Tables_number           15

loop_
_symmetry_equiv_pos_site_id
_symmetry_equiv_pos_as_xyz
1 x,y,z
2 -x,-y,-z
3 -x,y,-z+1/2
4 x,-y,z+1/2
5 x+1/2,y+1/2,z
6 -x+1/2,-y+1/2,-z
7 -x+1/2,y+1/2,-z+1/2
8 x+1/2,-y+1/2,z+1/2

loop_
_atom_site_label
_atom_site_type_symbol
_atom_site_fract_x
_atom_site_fract_y
_atom_site_fract_z
_atom_site_U_iso_or_equiv
_atom_site_symmetry_multiplicity
_atom_site_Wyckoff_symbol
_atom_site_occupancy
Yb1 Yb 0.0 0.7286 0.25 0.006 4 e 1.0
W2 W 0.19722 -4.0E-5 0.7356 0.0045 8 f 1.0
K3 K 0.5 0.2049 0.75 0.0145 4 e 1.0
O4 O 0.3736 -0.086 0.8115 0.011 8 f 1.0
O5 O 0.0241 -0.1103 0.4636 0.0067 8 f 1.0
O6 O 0.2783 0.1584 0.8732 0.005 8 f 1.0
O7 O 0.1907 -0.0784 0.9378 0.0091 8 f 1.0

