data_00-069-0233
# Copyright 2025 International Centre for Diffraction Data. All rights reserved.

_audit_creation_date                  2025-07-06
_audit_creation_method                'Generated by PDF-5+ 2025 4.25.0.2'

_chemical_name_systematic             'Yttrium Manganite'
_chemical_formula_moiety              'Y Mn O3'
_chemical_formula_sum                 'Mn O3 Y'
_chemical_formula_weight              191.84

_cell_length_a                        6.1373(3)
_cell_length_b                        6.1373(3)
_cell_length_c                        11.3781(6)
_cell_angle_alpha                     90.0
_cell_angle_beta                      90.0
_cell_angle_gamma                     120.0
_cell_formula_units_Z                 6
_cell_volume                          371.15
_symmetry_cell_setting                hexagonal
_symmetry_space_group_name_H-M        P63cm
_symmetry_Int_Tables_number           185

loop_
_symmetry_equiv_pos_site_id
_symmetry_equiv_pos_as_xyz
1 x,y,z
2 -y,x-y,z
3 -x+y,-x,z
4 y,x,z
5 -x,-x+y,z
6 x-y,-y,z
7 -x,-y,z+1/2
8 y,-x+y,z+1/2
9 x-y,x,z+1/2
10 -y,-x,z+1/2
11 x,x-y,z+1/2
12 -x+y,y,z+1/2

loop_
_atom_site_label
_atom_site_type_symbol
_atom_site_fract_x
_atom_site_fract_y
_atom_site_fract_z
_atom_site_B_iso_or_equiv
_atom_site_symmetry_multiplicity
_atom_site_Wyckoff_symbol
_atom_site_occupancy
Y1 Y 0.0 0.0 0.2659 0.15 . . 1.0
Y2 Y 0.3333 0.6666 0.2267 0.15 . . 1.0
Mn3 Mn 0.332 0.0 0.0 0.15 . . 1.0
O4 O 0.18513 0.0 0.14732 0.52 . . 1.0
O5 O 0.63485 0.0 0.33688 0.52 . . 1.0
O6 O 0.0 0.0 0.4952 0.63 . . 1.0
O7 O 0.3333 0.6666 0.04217 0.63 . . 1.0

