data_00-069-0495
# Copyright 2025 International Centre for Diffraction Data. All rights reserved.

_audit_creation_date                  2025-07-06
_audit_creation_method                'Generated by PDF-5+ 2025 4.25.0.2'

_chemical_name_systematic             'Rubidium Niobium Vanadium Oxide'
_chemical_name_common                 'rubidium niobium vanadate'
_chemical_formula_moiety              'Rb Nb V2 O8'
_chemical_formula_sum                 'Nb O8 Rb V2'
_chemical_formula_weight              408.25

_cell_length_a                        14.7605(8)
_cell_length_b                        5.5992(3)
_cell_length_c                        8.9505(5)
_cell_angle_alpha                     90.0
_cell_angle_beta                      90.0
_cell_angle_gamma                     90.0
_cell_formula_units_Z                 4
_cell_volume                          739.73
_symmetry_cell_setting                orthorhombic
_symmetry_space_group_name_H-M        Pnma
_symmetry_Int_Tables_number           62

loop_
_symmetry_equiv_pos_site_id
_symmetry_equiv_pos_as_xyz
1 x,y,z
2 -x,-y,-z
3 x+1/2,-y+1/2,-z+1/2
4 -x+1/2,y+1/2,z+1/2
5 -x,y+1/2,-z
6 x,-y+1/2,z
7 -x+1/2,-y,z+1/2
8 x+1/2,y,-z+1/2

loop_
_atom_site_label
_atom_site_type_symbol
_atom_site_fract_x
_atom_site_fract_y
_atom_site_fract_z
_atom_site_U_iso_or_equiv
_atom_site_symmetry_multiplicity
_atom_site_Wyckoff_symbol
_atom_site_occupancy
Nb1 Nb 0.16032 0.25 0.504 0.0091 . . 1.0
Rb2 Rb 0.11954 0.25 0.04835 0.0232 . . 1.0
V3 V 0.33989 0.25 0.25355 0.00947 . . 1.0
V4 V -0.06357 0.25 0.68339 0.0089 . . 1.0
O5 O 0.30807 -0.0012 0.1528 0.02053 . . 1.0
O6 O -0.12779 -0.004 0.6416 0.01503 . . 1.0
O7 O 0.2851 0.25 0.4296 0.01297 . . 1.0
O8 O 0.0358 0.25 0.5796 0.0166 . . 1.0
O9 O 0.447 0.25 0.2807 0.02567 . . 1.0
O10 O -0.0412 0.25 0.8591 0.0167 . . 1.0

loop_
_atom_site_aniso_label
_atom_site_aniso_U_11
_atom_site_aniso_U_12
_atom_site_aniso_U_13
_atom_site_aniso_U_22
_atom_site_aniso_U_23
_atom_site_aniso_U_33
Nb1 0.0104 0.0 0.00124 0.008 0.0 0.0089
Rb2 0.0213 0.0 -0.0021 0.0282 0.0 0.0201
V3 0.0095 0.0 6.0E-4 0.0118 0.0 0.0071
V4 0.0094 0.0 1.0E-4 0.0097 0.0 0.0076
O5 0.0237 -0.002 0.003 0.0175 -0.0104 0.0204
O6 0.0154 -0.0014 0.0021 0.0126 -0.004 0.0171
O7 0.009 0.0 0.0038 0.019 0.0 0.0109
O8 0.0138 0.0 0.0068 0.015 0.0 0.021
O9 0.016 0.0 0.0014 0.039 0.0 0.022
O10 0.022 0.0 -0.0053 0.018 0.0 0.0101

