data_00-060-0758
# Copyright 2025 International Centre for Diffraction Data. All rights reserved.

_audit_creation_date                  2025-07-04
_audit_creation_method                'Generated by PDF-5+ 2025 4.25.0.2'

_chemical_name_systematic             'Yttrium Manganese Oxide'
_chemical_formula_moiety              'Y Mn2 O5'
_chemical_formula_sum                 'Mn2 O5 Y'
_chemical_formula_weight              278.78

_cell_length_a                        7.27826(13)
_cell_length_b                        8.46698(14)
_cell_length_c                        5.66492(10)
_cell_angle_alpha                     90.0
_cell_angle_beta                      90.0
_cell_angle_gamma                     90.0
_cell_formula_units_Z                 4
_cell_volume                          349.10
_symmetry_cell_setting                orthorhombic
_symmetry_space_group_name_H-M        Pbam
_symmetry_Int_Tables_number           55

loop_
_symmetry_equiv_pos_site_id
_symmetry_equiv_pos_as_xyz
1 x,y,z
2 -x,-y,-z
3 -x,-y,z
4 x,y,-z
5 x+1/2,-y+1/2,-z
6 -x+1/2,y+1/2,z
7 -x+1/2,y+1/2,-z
8 x+1/2,-y+1/2,z

loop_
_atom_site_label
_atom_site_type_symbol
_atom_site_fract_x
_atom_site_fract_y
_atom_site_fract_z
_atom_site_U_iso_or_equiv
_atom_site_symmetry_multiplicity
_atom_site_Wyckoff_symbol
_atom_site_occupancy
Y1 Y 0.36086 0.32882 0.5 0.00606 . . 1.0
Mn2 Mn 0.089 0.14873 0.0 0.00553 . . 1.0
Mn3 Mn 0.0 0.5 0.2438 0.00553 . . 1.0
O4 O 0.1042 0.2953 0.2583 0.01 . . 1.0
O5 O 0.3417 0.0525 0.5 0.01 . . 1.0
O6 O 0.3426 0.0691 0.0 0.01 . . 1.0
O7 O 0.0 0.0 0.2311 0.01 . . 1.0

