data_00-057-0158
# Copyright 2025 International Centre for Diffraction Data. All rights reserved.

_audit_creation_date                  2025-07-04
_audit_creation_method                'Generated by PDF-5+ 2025 4.25.0.2'

_chemical_name_systematic             'Lithium Gallium Arsenate'
_chemical_formula_moiety              'Li Ga As2 O7'
_chemical_formula_sum                 'As2 Ga Li O7'
_chemical_formula_weight              338.50

# Atomic parameters are cross-referenced from PDF entry 04-015-2843

_cell_length_a                        6.638(1)
_cell_length_b                        8.181(2)
_cell_length_c                        4.696(1)
_cell_angle_alpha                     90
_cell_angle_beta                      104.01(3)
_cell_angle_gamma                     90
_cell_formula_units_Z                 2
_cell_volume                          247.43
_symmetry_cell_setting                monoclinic
_symmetry_space_group_name_H-M        C2
_symmetry_Int_Tables_number           5

loop_
_symmetry_equiv_pos_site_id
_symmetry_equiv_pos_as_xyz
1 x,y,z
2 -x,y,-z
3 x+1/2,y+1/2,z
4 -x+1/2,y+1/2,-z

loop_
_atom_site_label
_atom_site_type_symbol
_atom_site_fract_x
_atom_site_fract_y
_atom_site_fract_z
_atom_site_U_iso_or_equiv
_atom_site_symmetry_multiplicity
_atom_site_Wyckoff_symbol
_atom_site_occupancy
Li1 Li 0.0 0.7497 0.5 0.03884 2 b 1.0
Ga2 Ga 0.0 0.37576 0.5 0.00457 2 b 1.0
As3 As 0.21572 1.03658 0.90703 0.00424 4 c 1.0
O4 O 0.0 0.9529 0.0 0.01094 2 a 1.0
O5 O 0.3927 0.0562 0.2266 0.00666 4 c 1.0
O6 O 0.1655 0.2198 0.7602 0.01291 4 c 1.0
O7 O 0.251 0.8929 0.6697 0.00741 4 c 1.0

loop_
_atom_site_aniso_label
_atom_site_aniso_U_11
_atom_site_aniso_U_12
_atom_site_aniso_U_13
_atom_site_aniso_U_22
_atom_site_aniso_U_23
_atom_site_aniso_U_33
Li1 0.037 0.0 -0.012 0.019 0.0 0.049
Ga2 0.00516 0.0 7.4E-4 0.0049 0.0 0.00348
As3 0.0044 2.7E-4 6.9E-4 0.00494 3.7E-4 0.00327
O4 0.0058 0.0 0.0072 0.0105 0.0 0.0187
O5 0.008 6.0E-4 -0.002 0.0061 5.0E-4 0.0041
O6 0.0179 0.0021 -0.0041 0.0055 0.003 0.0114
O7 0.0081 -0.0012 0.0038 0.0075 -0.0032 0.0076

