data_00-058-0355
# Copyright 2025 International Centre for Diffraction Data. All rights reserved.

_audit_creation_date                  2025-07-04
_audit_creation_method                'Generated by PDF-5+ 2025 4.25.0.2'

_chemical_name_systematic             'Mercury Silicon Thallium Selenide'
_chemical_formula_moiety              'Hg Si Tl2 Se4'
_chemical_formula_sum                 'Hg Se4 Si Tl2'
_chemical_formula_weight              953.24

# Atomic parameters are cross-referenced from PDF entry 04-019-3885

_cell_length_a                        8.0032(3)
_cell_length_b                        8.0032(3)
_cell_length_c                        6.6879(4)
_cell_angle_alpha                     90
_cell_angle_beta                      90
_cell_angle_gamma                     90
_cell_formula_units_Z                 2
_cell_volume                          428.37
_symmetry_cell_setting                tetragonal
_symmetry_space_group_name_H-M        I-42m
_symmetry_Int_Tables_number           121

loop_
_symmetry_equiv_pos_site_id
_symmetry_equiv_pos_as_xyz
1 x,y,z
2 -x,-y,z
3 -x,y,-z
4 x,-y,-z
5 -y,x,-z
6 y,-x,-z
7 y,x,z
8 -y,-x,z
9 x+1/2,y+1/2,z+1/2
10 -x+1/2,-y+1/2,z+1/2
11 -x+1/2,y+1/2,-z+1/2
12 x+1/2,-y+1/2,-z+1/2
13 -y+1/2,x+1/2,-z+1/2
14 y+1/2,-x+1/2,-z+1/2
15 y+1/2,x+1/2,z+1/2
16 -y+1/2,-x+1/2,z+1/2

loop_
_atom_site_label
_atom_site_type_symbol
_atom_site_fract_x
_atom_site_fract_y
_atom_site_fract_z
_atom_site_B_iso_or_equiv
_atom_site_symmetry_multiplicity
_atom_site_Wyckoff_symbol
_atom_site_occupancy
Tl1 Tl 0.0 0.5 0.0 2.0 4 c 1.0
Hg2 Hg 0.0 0.0 0.5 2.19 2 b 1.0
Si3 Si 0.0 0.0 0.0 1.2 2 a 1.0
Se4 Se 0.1627 0.1627 0.2069 0.74 8 i 1.0

