data_00-073-0865
# Copyright 2025 International Centre for Diffraction Data. All rights reserved.

_audit_creation_date                  2025-07-06
_audit_creation_method                'Generated by PDF-5+ 2025 4.25.0.2'

_chemical_name_systematic             'Strontium Hafnium Sulfide'
_chemical_formula_moiety              'Sr Hf S3'
_chemical_formula_sum                 'Hf S3 Sr'
_chemical_formula_weight              362.30

_cell_length_a                        7.0395
_cell_length_b                        9.7072
_cell_length_c                        6.7174
_cell_angle_alpha                     90.0000
_cell_angle_beta                      90.0000
_cell_angle_gamma                     90.0000
_cell_formula_units_Z                 4
_cell_volume                          459.03
_symmetry_cell_setting                orthorhombic
_symmetry_space_group_name_H-M        Pnma
_symmetry_Int_Tables_number           62

loop_
_symmetry_equiv_pos_site_id
_symmetry_equiv_pos_as_xyz
1 x,y,z
2 -x,-y,-z
3 x+1/2,-y+1/2,-z+1/2
4 -x+1/2,y+1/2,z+1/2
5 -x,y+1/2,-z
6 x,-y+1/2,z
7 -x+1/2,-y,z+1/2
8 x+1/2,y,-z+1/2

loop_
_atom_site_label
_atom_site_type_symbol
_atom_site_fract_x
_atom_site_fract_y
_atom_site_fract_z
_atom_site_U_iso_or_equiv
_atom_site_symmetry_multiplicity
_atom_site_Wyckoff_symbol
_atom_site_occupancy
S1 S -0.20129 0.04805 -0.30219 . . . 1.0
Sr2 Sr -0.4264 0.25 -0.02255 . . . 1.0
S3 S -0.52007 0.25 -0.59338 . . . 1.0
Hf4 Hf 0.0 0.0 0.0 . . . 1.0

