data_00-069-0772
# Copyright 2025 International Centre for Diffraction Data. All rights reserved.

_audit_creation_date                  2025-07-06
_audit_creation_method                'Generated by PDF-5+ 2025 4.25.0.2'

_chemical_name_systematic             'Terbium Cobalt Indium'
_chemical_formula_moiety              'Tb Co2 In'
_chemical_formula_sum                 'Co2 In Tb'
_chemical_formula_weight              391.61

_cell_length_a                        5.0279(2)
_cell_length_b                        4.0457(2)
_cell_length_c                        7.1156(3)
_cell_angle_alpha                     90.0
_cell_angle_beta                      90.0
_cell_angle_gamma                     90.0
_cell_formula_units_Z                 2
_cell_volume                          144.74
_symmetry_cell_setting                orthorhombic
_symmetry_space_group_name_H-M        Pmma
_symmetry_Int_Tables_number           51

loop_
_symmetry_equiv_pos_site_id
_symmetry_equiv_pos_as_xyz
1 x,y,z
2 -x,-y,-z
3 -x,y,-z
4 x,-y,z
5 -x+1/2,y,z
6 x+1/2,-y,-z
7 x+1/2,y,-z
8 -x+1/2,-y,z

loop_
_atom_site_label
_atom_site_type_symbol
_atom_site_fract_x
_atom_site_fract_y
_atom_site_fract_z
_atom_site_U_iso_or_equiv
_atom_site_symmetry_multiplicity
_atom_site_Wyckoff_symbol
_atom_site_occupancy
Tb1 Tb 0.25 0.5 0.7078 . . . 1.0
Co2 Co 0.25 0.5 0.1046 . . . 1.0
Co3 Co 0.0 0.0 0.0 . . . 1.0
In4 In 0.25 0.0 0.3498 . . . 1.0

