data_00-059-0233
# Copyright 2025 International Centre for Diffraction Data. All rights reserved.

_audit_creation_date                  2025-07-04
_audit_creation_method                'Generated by PDF-5+ 2025 4.25.0.2'

_chemical_name_systematic             'Copper Indium Silicon Sulfide'
_chemical_formula_moiety              'Cu2 In2 Si S6'
_chemical_formula_sum                 'Cu2 In2 S6 Si'
_chemical_formula_weight              577.20

# Atomic parameters are cross-referenced from PDF entry 04-014-4105

_cell_length_a                        11.8725(3)
_cell_length_b                        6.7880(2)
_cell_length_c                        11.9718(2)
_cell_angle_alpha                     90
_cell_angle_beta                      110.224(2)
_cell_angle_gamma                     90
_cell_formula_units_Z                 4
_cell_volume                          905.33
_symmetry_cell_setting                monoclinic
_symmetry_space_group_name_H-M        Cc
_symmetry_Int_Tables_number           9

loop_
_symmetry_equiv_pos_site_id
_symmetry_equiv_pos_as_xyz
1 x,y,z
2 x,-y,z+1/2
3 x+1/2,y+1/2,z
4 x+1/2,-y+1/2,z+1/2

loop_
_atom_site_label
_atom_site_type_symbol
_atom_site_fract_x
_atom_site_fract_y
_atom_site_fract_z
_atom_site_B_iso_or_equiv
_atom_site_symmetry_multiplicity
_atom_site_Wyckoff_symbol
_atom_site_occupancy
Cu1 Cu 0.3982 0.6085 0.254 1.92 4 a 1.0
Cu2 Cu 0.598 0.2017 0.3987 2.11 4 a 1.0
In3 In 0.4172 0.1162 0.059 0.95 4 a 1.0
In4 In 0.2391 0.0694 0.2541 0.92 4 a 1.0
Si5 Si 0.1683 0.7578 -0.0054 1.06 4 a 1.0
S6 S 0.3555 0.7565 0.053 0.8 4 a 1.0
S7 S 0.4211 0.2602 0.2493 0.29 4 a 1.0
S8 S 0.0971 0.0109 0.0491 1.0 4 a 1.0
S9 S 0.095 0.2641 0.3123 1.0 4 a 1.0
S10 S 0.2851 0.2427 0.8642 0.94 4 a 1.0
S11 S 0.6228 0.0041 0.0643 1.1 4 a 1.0

