data_00-064-0599
# Copyright 2025 International Centre for Diffraction Data. All rights reserved.

_audit_creation_date                  2025-07-06
_audit_creation_method                'Generated by PDF-5+ 2025 4.25.0.2'

_chemical_name_systematic             'Cobalt Germanium Samarium'
_chemical_formula_moiety              'Co2 Ge3 Sm3'
_chemical_formula_sum                 'Co2 Ge3 Sm3'
_chemical_formula_weight              786.84

_cell_length_a                        4.2186(1)
_cell_length_b                        10.6997(2)
_cell_length_c                        14.1858(4)
_cell_angle_alpha                     90.0
_cell_angle_beta                      90.0
_cell_angle_gamma                     90.0
_cell_formula_units_Z                 4
_cell_volume                          640.32
_symmetry_cell_setting                orthorhombic
_symmetry_space_group_name_H-M        Cmcm
_symmetry_Int_Tables_number           63

loop_
_symmetry_equiv_pos_site_id
_symmetry_equiv_pos_as_xyz
1 x,y,z
2 -x,-y,-z
3 x,-y,-z
4 -x,y,z
5 x,y,-z+1/2
6 -x,-y,z+1/2
7 x,-y,z+1/2
8 -x,y,-z+1/2
9 x+1/2,y+1/2,z
10 -x+1/2,-y+1/2,-z
11 x+1/2,-y+1/2,-z
12 -x+1/2,y+1/2,z
13 x+1/2,y+1/2,-z+1/2
14 -x+1/2,-y+1/2,z+1/2
15 x+1/2,-y+1/2,z+1/2
16 -x+1/2,y+1/2,-z+1/2

loop_
_atom_site_label
_atom_site_type_symbol
_atom_site_fract_x
_atom_site_fract_y
_atom_site_fract_z
_atom_site_U_iso_or_equiv
_atom_site_symmetry_multiplicity
_atom_site_Wyckoff_symbol
_atom_site_occupancy
Sm1 Sm 0.0 0.4182 0.1112 . 8 f 1.0
Sm2 Sm 0.0 0.1346 0.25 . 4 c 1.0
Co3 Co 0.0 0.7124 0.0898 . 8 f 1.0
Ge4 Ge 0.0 0.8302 0.25 . 4 c 1.0
Ge5 Ge 0.0 0.1212 0.0452 . 8 f 1.0

