data_00-049-1085
# Copyright 2025 International Centre for Diffraction Data. All rights reserved.

_audit_creation_date                  2025-07-04
_audit_creation_method                'Generated by PDF-5+ 2025 4.25.0.2'

_chemical_name_systematic             'Potassium Gadolinium Phosphate'
_chemical_formula_moiety              'K3 Gd ( P O4 )2'
_chemical_formula_sum                 'Gd K3 O8 P2'
_chemical_formula_weight              464.48

# Atomic parameters are cross-referenced from PDF entry 04-016-8399

_cell_length_a                        7.4153(15)
_cell_length_b                        5.6206(11)
_cell_length_c                        9.445(2)
_cell_angle_alpha                     90
_cell_angle_beta                      90.723(14)
_cell_angle_gamma                     90
_cell_formula_units_Z                 2
_cell_volume                          393.62
_symmetry_cell_setting                monoclinic
_symmetry_space_group_name_H-M        P21/m
_symmetry_Int_Tables_number           11

loop_
_symmetry_equiv_pos_site_id
_symmetry_equiv_pos_as_xyz
1 x,y,z
2 -x,-y,-z
3 -x,y+1/2,-z
4 x,-y+1/2,z

loop_
_atom_site_label
_atom_site_type_symbol
_atom_site_fract_x
_atom_site_fract_y
_atom_site_fract_z
_atom_site_U_iso_or_equiv
_atom_site_symmetry_multiplicity
_atom_site_Wyckoff_symbol
_atom_site_occupancy
Gd1 Gd 0.00699 0.25 0.29011 0.00731 2 e 1.0
P2 P 0.80967 0.25 0.5735 0.00758 2 e 1.0
P3 P 0.2303 0.25 0.91166 0.00661 2 e 1.0
K4 K 0.20438 0.75 0.0816 0.01184 2 e 1.0
K5 K 0.50495 0.25 0.19219 0.01419 2 e 1.0
K6 K 0.36353 0.25 0.59102 0.01424 2 e 1.0
O7 O 1.0137 0.25 0.5478 0.01669 2 e 1.0
O8 O 0.7564 0.4735 0.6577 0.01226 4 f 1.0
O9 O 0.7177 0.25 0.4266 0.01158 2 e 1.0
O10 O 0.8481 -0.0269 0.1623 0.01285 4 f 1.0
O11 O 0.4337 0.25 0.8991 0.01632 2 e 1.0
O12 O 0.1744 0.25 1.0689 0.01152 2 e 1.0

loop_
_atom_site_aniso_label
_atom_site_aniso_U_11
_atom_site_aniso_U_12
_atom_site_aniso_U_13
_atom_site_aniso_U_22
_atom_site_aniso_U_23
_atom_site_aniso_U_33
Gd1 0.0066 0.0 -9.7E-4 0.0068 0.0 0.0085
P2 0.0065 0.0 -0.0012 0.0086 0.0 0.0076
P3 0.007 0.0 -9.0E-4 0.0052 0.0 0.0076
K4 0.0137 0.0 -1.0E-4 0.01 0.0 0.0118
K5 0.0101 0.0 -0.0021 0.0186 0.0 0.0138
K6 0.0126 0.0 -2.0E-4 0.0136 0.0 0.0165
O7 0.007 0.0 -0.0023 0.031 0.0 0.012
O8 0.0176 -0.0023 7.0E-4 0.0087 -0.0019 0.0105
O9 0.0087 0.0 -0.001 0.015 0.0 0.011
O10 0.0152 -0.0033 -0.0016 0.0081 -0.0018 0.0152
O11 0.01 0.0 0.0017 0.021 0.0 0.018
O12 0.013 0.0 0.0012 0.014 0.0 0.0076

