data_00-065-0437
# Copyright 2025 International Centre for Diffraction Data. All rights reserved.

_audit_creation_date                  2025-07-06
_audit_creation_method                'Generated by PDF-5+ 2025 4.25.0.2'

_chemical_name_systematic             'Nickel Silicon Yttrium'
_chemical_formula_moiety              'Ni4 Si Y'
_chemical_formula_sum                 'Ni4 Si Y'
_chemical_formula_weight              351.77

_cell_length_a                        5.0550(1)
_cell_length_b                        8.2110(1)
_cell_length_c                        3.9506(1)
_cell_angle_alpha                     90.0
_cell_angle_beta                      90.0
_cell_angle_gamma                     90.0
_cell_formula_units_Z                 2
_cell_volume                          163.98
_symmetry_cell_setting                orthorhombic
_symmetry_space_group_name_H-M        Cmmm
_symmetry_Int_Tables_number           65

loop_
_symmetry_equiv_pos_site_id
_symmetry_equiv_pos_as_xyz
1 x,y,z
2 -x,-y,-z
3 -x,-y,z
4 x,y,-z
5 x,-y,-z
6 -x,y,z
7 -x,y,-z
8 x,-y,z
9 x+1/2,y+1/2,z
10 -x+1/2,-y+1/2,-z
11 -x+1/2,-y+1/2,z
12 x+1/2,y+1/2,-z
13 x+1/2,-y+1/2,-z
14 -x+1/2,y+1/2,z
15 -x+1/2,y+1/2,-z
16 x+1/2,-y+1/2,z

loop_
_atom_site_label
_atom_site_type_symbol
_atom_site_fract_x
_atom_site_fract_y
_atom_site_fract_z
_atom_site_U_iso_or_equiv
_atom_site_symmetry_multiplicity
_atom_site_Wyckoff_symbol
_atom_site_occupancy
Y1 Y 0.0 0.0 0.0 . 2 a 1.0
Ni2 Ni 0.0 0.3416 0.0 . 4 i 1.0
Ni3 Ni 0.25 0.25 0.5 . 4 f 1.0
Si4 Si 0.5 0.0 0.5 . 2 c 1.0

