data_00-065-0316
# Copyright 2025 International Centre for Diffraction Data. All rights reserved.

_audit_creation_date                  2025-07-06
_audit_creation_method                'Generated by PDF-5+ 2025 4.25.0.2'

_chemical_name_systematic             'Lead Titanium Oxide'
_chemical_formula_moiety              'Pb Ti O3'
_chemical_formula_sum                 'O3 Pb Ti'
_chemical_formula_weight              303.05

_cell_length_a                        12.3853(1)
_cell_length_b                        12.3853(1)
_cell_length_c                        3.82000(4)
_cell_angle_alpha                     90.0
_cell_angle_beta                      90.0
_cell_angle_gamma                     90.0
_cell_formula_units_Z                 8
_cell_volume                          585.97
_symmetry_cell_setting                tetragonal
_symmetry_space_group_name_H-M        I4/m
_symmetry_Int_Tables_number           87

loop_
_symmetry_equiv_pos_site_id
_symmetry_equiv_pos_as_xyz
1 x,y,z
2 -x,-y,-z
3 -x,-y,z
4 x,y,-z
5 -y,x,z
6 y,-x,-z
7 y,-x,z
8 -y,x,-z
9 x+1/2,y+1/2,z+1/2
10 -x+1/2,-y+1/2,-z+1/2
11 -x+1/2,-y+1/2,z+1/2
12 x+1/2,y+1/2,-z+1/2
13 -y+1/2,x+1/2,z+1/2
14 y+1/2,-x+1/2,-z+1/2
15 y+1/2,-x+1/2,z+1/2
16 -y+1/2,x+1/2,-z+1/2

loop_
_atom_site_label
_atom_site_type_symbol
_atom_site_fract_x
_atom_site_fract_y
_atom_site_fract_z
_atom_site_U_iso_or_equiv
_atom_site_symmetry_multiplicity
_atom_site_Wyckoff_symbol
_atom_site_occupancy
Pb1 Pb 0.3351 0.34959 0.0 0.06323 . . 1.0
Ti2 Ti -0.0312 0.6426 0.0 0.06 . . 1.0
O3 O 0.1073 0.5262 0.0 0.05133 . . 1.0
O4 O -0.0407 0.2416 0.0 0.05633 . . 1.0
O5 O -0.1639 0.7168 0.0 0.06267 . . 1.0

loop_
_atom_site_aniso_label
_atom_site_aniso_U_11
_atom_site_aniso_U_12
_atom_site_aniso_U_13
_atom_site_aniso_U_22
_atom_site_aniso_U_23
_atom_site_aniso_U_33
Pb1 0.0592 -0.0016 0.0 0.0681 0.0 0.0624
Ti2 0.056 0.011 0.0 0.066 0.0 0.058
O3 0.028 -0.016 0.0 0.079 0.0 0.047
O4 0.04 0.021 0.0 0.077 0.0 0.052
O5 0.077 -0.02 0.0 0.047 0.0 0.064

