data_00-063-0401
# Copyright 2025 International Centre for Diffraction Data. All rights reserved.

_audit_creation_date                  2025-07-06
_audit_creation_method                'Generated by PDF-5+ 2025 4.25.0.2'

_chemical_name_systematic             'Indium Nickel Terbium'
_chemical_name_common                 'terbium nickel indide'
_chemical_formula_moiety              'In9 Ni4 Tb11'
_chemical_formula_sum                 'In9 Ni4 Tb11'
_chemical_formula_weight              3016.31

_cell_length_a                        14.3986(8)
_cell_length_b                        21.632(2)
_cell_length_c                        3.6169(4)
_cell_angle_alpha                     90.0
_cell_angle_beta                      90.0
_cell_angle_gamma                     90.0
_cell_formula_units_Z                 2
_cell_volume                          1128.34
_symmetry_cell_setting                orthorhombic
_symmetry_space_group_name_H-M        Cmmm
_symmetry_Int_Tables_number           65

loop_
_symmetry_equiv_pos_site_id
_symmetry_equiv_pos_as_xyz
1 x,y,z
2 -x,-y,-z
3 -x,-y,z
4 x,y,-z
5 x,-y,-z
6 -x,y,z
7 -x,y,-z
8 x,-y,z
9 x+1/2,y+1/2,z
10 -x+1/2,-y+1/2,-z
11 -x+1/2,-y+1/2,z
12 x+1/2,y+1/2,-z
13 x+1/2,-y+1/2,-z
14 -x+1/2,y+1/2,z
15 -x+1/2,y+1/2,-z
16 x+1/2,-y+1/2,z

loop_
_atom_site_label
_atom_site_type_symbol
_atom_site_fract_x
_atom_site_fract_y
_atom_site_fract_z
_atom_site_U_iso_or_equiv
_atom_site_symmetry_multiplicity
_atom_site_Wyckoff_symbol
_atom_site_occupancy
Tb1 Tb 0.2432 0.1743 0.0 . . . 1.0
Tb2 Tb 0.0 0.1604 0.0 . . . 1.0
Tb3 Tb 0.0 0.3756 0.0 . . . 1.0
Tb4 Tb 0.3065 0.0 0.0 . . . 1.0
Tb5 Tb 0.0 0.0 0.0 . . . 1.0
Ni6 Ni 0.3602 0.0934 0.5 . . . 1.0
In7 In 0.1044 0.2664 0.5 . . . 1.0
In8 In 0.1479 0.0695 0.5 . . . 1.0
In9 In 0.5 0.0 0.5 . . . 1.0

