data_00-049-0499
# Copyright 2025 International Centre for Diffraction Data. All rights reserved.

_audit_creation_date                  2025-07-04
_audit_creation_method                'Generated by PDF-5+ 2025 4.25.0.2'

_chemical_name_systematic             'Cobalt Chromium Phosphate'
_chemical_formula_moiety              'Co3 Cr4 ( P O4 )6'
_chemical_formula_sum                 'Co3 Cr4 O24 P6'
_chemical_formula_weight              954.60

# Atomic parameters are cross-referenced from PDF entry 04-015-6708

_cell_length_a                        7.8561(3)
_cell_length_b                        9.2350(5)
_cell_length_c                        6.2785(3)
_cell_angle_alpha                     108.173(3)
_cell_angle_beta                      101.808(3)
_cell_angle_gamma                     105.329(3)
_cell_formula_units_Z                 1
_cell_volume                          396.38
_symmetry_cell_setting                triclinic
_symmetry_space_group_name_H-M        P-1
_symmetry_Int_Tables_number           2

loop_
_symmetry_equiv_pos_site_id
_symmetry_equiv_pos_as_xyz
1 x,y,z
2 -x,-y,-z

loop_
_atom_site_label
_atom_site_type_symbol
_atom_site_fract_x
_atom_site_fract_y
_atom_site_fract_z
_atom_site_B_iso_or_equiv
_atom_site_symmetry_multiplicity
_atom_site_Wyckoff_symbol
_atom_site_occupancy
Co1 Co 0.0 0.0 0.0 0.7 1 a 1.0
Cr2 Cr 0.4556 0.1093 0.382 0.4 2 i 1.0
Co3 Co -0.1884 0.2918 0.294 1.5 2 i 1.0
Cr4 Cr -0.2808 -0.4739 0.054 1.2 2 i 1.0
P5 P -0.399 -0.161 0.102 0.8 2 i 1.0
P6 P 0.242 0.372 0.399 0.8 2 i 1.0
P7 P 0.146 -0.235 0.224 0.7 2 i 1.0
O8 O 0.026 0.24 0.261 0.8 2 i 1.0
O9 O -0.452 -0.088 0.317 0.8 2 i 1.0
O10 O 0.298 0.474 0.263 0.8 2 i 1.0
O11 O 0.369 0.276 0.439 0.8 2 i 1.0
O12 O 0.261 -0.238 0.445 0.8 2 i 1.0
O13 O -0.464 -0.352 0.063 0.8 2 i 1.0
O14 O -0.198 -0.075 0.136 0.8 2 i 1.0
O15 O -0.46 0.172 0.136 0.8 2 i 1.0
O16 O -0.185 0.354 0.0 0.8 2 i 1.0
O17 O -0.24 -0.499 0.352 0.8 2 i 1.0
O18 O 0.192 -0.054 0.233 0.8 2 i 1.0
O19 O -0.074 -0.302 0.197 0.8 2 i 1.0

