data_00-063-0459
# Copyright 2025 International Centre for Diffraction Data. All rights reserved.

_audit_creation_date                  2025-07-06
_audit_creation_method                'Generated by PDF-5+ 2025 4.25.0.2'

_chemical_name_systematic             'Cobalt Gadolinium Germanium'
_chemical_name_common                 'gadolinium cobalt germanide'
_chemical_formula_moiety              'Co Gd2 Ge2'
_chemical_formula_sum                 'Co Gd2 Ge2'
_chemical_formula_weight              518.69

_cell_length_a                        10.6240(5)
_cell_length_b                        4.2287(2)
_cell_length_c                        10.2569(5)
_cell_angle_alpha                     90.0
_cell_angle_beta                      118.334(3)
_cell_angle_gamma                     90.0
_cell_formula_units_Z                 4
_cell_volume                          405.59
_symmetry_cell_setting                monoclinic
_symmetry_space_group_name_H-M        C12/m1
_symmetry_Int_Tables_number           12

loop_
_symmetry_equiv_pos_site_id
_symmetry_equiv_pos_as_xyz
1 x,y,z
2 -x,-y,-z
3 x,-y,z
4 -x,y,-z
5 x+1/2,y+1/2,z
6 -x+1/2,-y+1/2,-z
7 x+1/2,-y+1/2,z
8 -x+1/2,y+1/2,-z

loop_
_atom_site_label
_atom_site_type_symbol
_atom_site_fract_x
_atom_site_fract_y
_atom_site_fract_z
_atom_site_U_iso_or_equiv
_atom_site_symmetry_multiplicity
_atom_site_Wyckoff_symbol
_atom_site_occupancy
Gd1 Gd -6.0E-4 0.0 0.3276 . 4 i 1.0
Gd2 Gd 0.1885 0.0 0.1056 . 4 i 1.0
Co3 Co 0.2727 0.0 0.6236 . 4 i 1.0
Ge4 Ge 0.3498 0.0 0.4349 . 4 i 1.0
Ge5 Ge 0.4932 0.0 0.1209 . 4 i 1.0

