data_00-058-0342
# Copyright 2025 International Centre for Diffraction Data. All rights reserved.

_audit_creation_date                  2025-07-04
_audit_creation_method                'Generated by PDF-5+ 2025 4.25.0.2'

_chemical_name_systematic             'Aluminum Cerium Rhodium'
_chemical_formula_moiety              'Al Ce Rh'
_chemical_formula_sum                 'Al Ce Rh'
_chemical_formula_weight              270.00
_chemical_melting_point               2075.0

# Atomic parameters are cross-referenced from PDF entry 04-009-4389

_cell_length_a                        7.1141(6)
_cell_length_b                        4.2293(9)
_cell_length_c                        15.979(1)
_cell_angle_alpha                     90
_cell_angle_beta                      90
_cell_angle_gamma                     90
_cell_formula_units_Z                 8
_cell_volume                          480.77
_symmetry_cell_setting                orthorhombic
_symmetry_space_group_name_H-M        Pnma
_symmetry_Int_Tables_number           62

loop_
_symmetry_equiv_pos_site_id
_symmetry_equiv_pos_as_xyz
1 x,y,z
2 -x,-y,-z
3 x+1/2,-y+1/2,-z+1/2
4 -x+1/2,y+1/2,z+1/2
5 -x,y+1/2,-z
6 x,-y+1/2,z
7 -x+1/2,-y,z+1/2
8 x+1/2,y,-z+1/2

loop_
_atom_site_label
_atom_site_type_symbol
_atom_site_fract_x
_atom_site_fract_y
_atom_site_fract_z
_atom_site_U_iso_or_equiv
_atom_site_symmetry_multiplicity
_atom_site_Wyckoff_symbol
_atom_site_occupancy
Ce1 Ce 0.02366 0.25 0.22063 0.0092 4 c 1.0
Ce2 Ce 0.15391 0.25 0.44035 0.0097 4 c 1.0
Rh3 Rh 0.21605 0.25 0.07369 0.0096 4 c 1.0
Rh4 Rh 0.76549 0.25 0.68452 0.0118 4 c 1.0
Al5 Al 0.0068 0.25 0.9375 0.0087 4 c 1.0
Al6 Al 0.1496 0.25 0.6497 0.0094 4 c 1.0

