data_00-063-0405
# Copyright 2025 International Centre for Diffraction Data. All rights reserved.

_audit_creation_date                  2025-07-06
_audit_creation_method                'Generated by PDF-5+ 2025 4.25.0.2'

_chemical_name_systematic             'Germanium Holmium Nickel'
_chemical_name_common                 'holmium nickel germanide'
_chemical_formula_moiety              'Ge2 Ho3 Ni'
_chemical_formula_sum                 'Ge2 Ho3 Ni'
_chemical_formula_weight              698.74

_cell_length_a                        11.2991(6)
_cell_length_b                        4.1530(2)
_cell_length_c                        11.1466(6)
_cell_angle_alpha                     90.0
_cell_angle_beta                      90.0
_cell_angle_gamma                     90.0
_cell_formula_units_Z                 4
_cell_volume                          523.06
_symmetry_cell_setting                orthorhombic
_symmetry_space_group_name_H-M        Pnma
_symmetry_Int_Tables_number           62

loop_
_symmetry_equiv_pos_site_id
_symmetry_equiv_pos_as_xyz
1 x,y,z
2 -x,-y,-z
3 x+1/2,-y+1/2,-z+1/2
4 -x+1/2,y+1/2,z+1/2
5 -x,y+1/2,-z
6 x,-y+1/2,z
7 -x+1/2,-y,z+1/2
8 x+1/2,y,-z+1/2

loop_
_atom_site_label
_atom_site_type_symbol
_atom_site_fract_x
_atom_site_fract_y
_atom_site_fract_z
_atom_site_U_iso_or_equiv
_atom_site_symmetry_multiplicity
_atom_site_Wyckoff_symbol
_atom_site_occupancy
Ho1 Ho 0.3775 0.25 0.4411 . 4 c 1.0
Ho2 Ho 0.0532 0.25 0.3746 . 4 c 1.0
Ho3 Ho 0.2117 0.25 0.7007 . 4 c 1.0
Ni4 Ni 0.1243 0.25 0.1279 . 4 c 1.0
Ge5 Ge 0.4813 0.25 0.6805 . 4 c 1.0
Ge6 Ge 0.3093 0.25 0.0077 . 4 c 1.0

