data_00-059-0841
# Copyright 2025 International Centre for Diffraction Data. All rights reserved.

_audit_creation_date                  2025-07-04
_audit_creation_method                'Generated by PDF-5+ 2025 4.25.0.2'

_chemical_name_systematic             'Barium Ytterbium Silicate'
_chemical_formula_moiety              'Ba Yb2 ( Si3 O10 )'
_chemical_formula_sum                 'Ba O10 Si3 Yb2'
_chemical_formula_weight              727.68

# Atomic parameters are cross-referenced from PDF entry 04-022-6736

_cell_length_a                        5.377
_cell_length_b                        12.117
_cell_length_c                        6.79
_cell_angle_alpha                     90
_cell_angle_beta                      106.5
_cell_angle_gamma                     90
_cell_formula_units_Z                 2
_cell_volume                          424.17
_symmetry_cell_setting                monoclinic
_symmetry_space_group_name_H-M        P21/m
_symmetry_Int_Tables_number           11

loop_
_symmetry_equiv_pos_site_id
_symmetry_equiv_pos_as_xyz
1 x,y,z
2 -x,-y,-z
3 -x,y+1/2,-z
4 x,-y+1/2,z

loop_
_atom_site_label
_atom_site_type_symbol
_atom_site_fract_x
_atom_site_fract_y
_atom_site_fract_z
_atom_site_U_iso_or_equiv
_atom_site_symmetry_multiplicity
_atom_site_Wyckoff_symbol
_atom_site_occupancy
O1 O 0.1002 0.05192 0.3511 . 4 f 1.0
Yb2 Yb 0.15801 0.09886 0.68431 . 4 f 1.0
O3 O 0.1652 0.12347 0.003 . 4 f 1.0
Si4 Si 0.30379 0.06205 0.21344 . 4 f 1.0
O5 O 0.4308 0.55455 0.1907 . 4 f 1.0
O6 O 0.5483 0.14287 0.3397 . 4 f 1.0
O7 O 0.3723 0.25 0.6158 . 2 e 1.0
Si8 Si 0.58242 0.25 0.48917 . 2 e 1.0
Ba9 Ba 0.76082 0.25 0.01992 . 2 e 1.0
O10 O 0.8766 0.25 0.6344 . 2 e 1.0

